352
i =
  H        -3.7900523106       14.6200277501       15.8440345428
  C        -3.4447197476       13.5849201579       15.9130503095
  H        -4.2998303584       12.9549307460       16.0544610636
  C        -2.4872769244       13.4493581632       17.1072091488
  C        -2.6915930785       13.1698719631       14.6154317543
  C        -3.2198581199       13.3909172472       18.4421117047
  H        -1.8949902566       12.5101873482       16.9855644008
  H        -1.8651381385       14.3297605074       17.1030816365
  H        -3.2574617584       13.0739497100       13.6371434446
  H        -1.8723349515       13.8259594028       14.4195048978
  H        -2.1412390580       12.2356934593       14.6905503168
  C        -2.2043162241       13.0952503800       19.5736992534
  H        -4.0882390625       12.7775025596       18.4763186347
  H        -3.5496011667       14.3381680859       18.7140413651
  C        -2.6936754387       13.1166561683       21.0796911578
  H        -1.7861833666       12.0913743972       19.4572085138
  H        -1.3959715888       13.7702465986       19.4612055392
  C        -1.5610287614       12.7707225203       22.0613381206
  H        -3.4789359823       12.4039878006       21.3173176153
  H        -3.0532242138       14.0793046173       21.2524862855
  C        -0.3227941712       13.6944392726       22.1768521602
  H        -1.9884974877       12.5302598443       23.0062932162
  H        -1.3125193540       11.7505189124       21.8876553722
  C         0.9441650149       13.1344182148       23.0134821249
  H         0.1112436171       13.8559906153       21.2283686861
  H        -0.6172416825       14.5897801200       22.6869957521
  C         1.4317296441       11.7972581017       22.3510107579
  C         0.5063025695       12.3362044377       24.2728699366
  C         1.9614493840       14.1807756637       23.1315973883
  C         1.1875369664       10.6831931702       23.1339710128
  C         2.0225686993       11.5274541995       21.0903143305
  C         0.5955389586       10.9786208076       24.3983864238
  C         0.1199365431       12.9431017437       25.4984855675
  H         2.1667200744       14.6224276084       22.1684923268
  H         1.5435455228       14.9561393203       23.8070464302
  C         3.2311591822       13.7203211355       23.8133760412
  S         1.8250043207        9.2480887030       22.4366882043
  C         2.3340494804       10.2152383263       21.0021233597
  H         2.1457280015       12.3161725512       20.4092080129
  C         0.3073215242       10.3593659420       25.5687768761
  H         0.0370786995       14.0141934885       25.4333752530
  C        -0.2222799876       12.3310571525       26.6866577720
  H         3.7126119700       12.8278516040       23.3395806769
  H         3.0360924887       13.3661365667       24.8586962437
  C         4.3007959545       14.8377028505       23.9933779743
  C         2.7816575521        9.5425245578       19.7515333871
  C        -0.1726730486       10.9605950615       26.7690670514
  H         0.5303275172        9.3920752390       25.6358033923
  C        -0.6203375269       12.7241124976       27.9539630232
  H         4.8939776136       14.4895103439       24.8369816287
  H         3.7103259839       15.6323296331       24.3996308143
  C         5.0802128550       15.2320759265       22.7545327991
  C         2.6782830817        8.1526344596       19.4119982124
  C         3.4440871796       10.4271225780       18.7070084502
  C        -0.5150152755       10.2933375180       28.0757432392
  C        -0.7754562358       11.6786201749       28.7800830922
  S        -0.9254460245       14.3301702825       28.5029746074
  H         5.4516887504       16.2344881056       22.8506289030
  H         4.5072873755       15.0882003275       21.8234884431
  C         6.4079802573       14.4365396373       22.6870938894
  N         2.1984880313        7.1876259348       20.2922456998
  C         2.9504823218        7.6443840280       18.1310859660
  C         3.6058459133        9.9406915132       17.3829062822
  H         3.7884642074       11.3912731200       18.9725470643
  C         0.7043083892        9.5429319926       28.5264294779
  C        -1.8240488150        9.4525653024       27.8187858320
  C        -1.2465857704       12.2233054921       30.0392729750
  C        -1.3399615860       13.6104841547       30.0406268209
  H         7.1083910038       15.0127784100       22.0972411451
  H         6.8443067106       14.3521184156       23.7471430462
  C         6.3567910574       13.0080003122       22.1474744159
  S         2.3445819560        5.7495720546       19.5427401436
  N         2.7971029433        6.2808908204       18.1006093028
  C         3.3367923056        8.5304069105       17.0121581279
  H         4.1093421286       10.5995449753       16.7003511581
  H         1.1364454778        8.8654258940       27.7794872768
  H         0.3857768576        8.9835815034       29.3833617137
  C         1.9143566314       10.3904075980       28.9667494298
  H        -1.6594880975        8.9392443102       26.8653222276
  H        -1.9395779811        8.7994023421       28.6973814254
  C        -3.0415100042       10.2939381843       27.6464467184
  H        -1.5376612973       11.5426767232       30.8620237444
  C        -1.7315473635       14.4330099629       31.2149832050
  H         5.7291530265       12.3890923268       22.7792903458
  H         7.3549353408       12.5625647435       22.2420279417
  C         5.8923631978       12.8602348753       20.7487126051
  C         3.4243766075        7.8013673360       15.8169623825
  H         2.1896480398       11.0556873527       28.1911533534
  H         1.5846745619       11.0393131336       29.8043612939
  C         3.0595264151        9.6103698077       29.5814982390
  H        -2.7997779205       11.0881638929       26.9530097402
  H        -3.3127123461       10.7814467859       28.5926569576
  C        -4.2234938210        9.4822332482       27.1132762718
  C        -1.7656228295       15.8389175355       31.3677904344
  C        -2.2298274246       13.7376233140       32.4181583738
  H         5.5911813276       11.8091042438       20.7388734232
  H         4.9713799430       13.4481231749       20.6089913090
  C         6.7982409807       13.1879687185       19.6638024356
  H         3.3472780866        6.7050720185       15.9298499300
  C         3.7148044284        8.2818097851       14.5428360595
  H         3.2836782002        8.8048546985       28.9526373389
  H         2.7871502960        9.1157342212       30.5058363595
  C         4.2790037430       10.5800235525       29.7858175860
  H        -4.0719949167        9.0665230404       26.1001537007
  H        -4.4211395363        8.6911136344       27.7581670382
  C        -5.5772877374       10.2568018919       27.1621392748
  N        -1.2940844791       16.7637465376       30.4336212808
  C        -2.0652495798       16.4760131876       32.5300967731
  C        -2.5347661606       14.3546287399       33.6169952274
  H        -2.2801818692       12.6424671250       32.3645262178
  H         6.9193362531       14.2056997687       19.4719350878
  H         7.7338162034       12.7379892161       19.9702603797
  H         6.4816218317       12.8134466251       18.6924235194
  S         4.0853083347        9.9065885965       14.0420504948
  C         3.7934045627        7.2171766993       13.4800584455
  H         4.3532335262       11.2649613233       28.9233812457
  H         4.1044697079       11.1527385078       30.7188564691
  C         5.6249562115        9.9672730608       29.7715774788
  H        -5.4008934722       11.1625389735       27.6309845550
  H        -6.2896982953        9.7269556938       27.8242772590
  C        -6.1557426458       10.3786823369       25.7303967798
  S        -1.1150873772       18.1761718265       31.1558713426
  N        -1.9541479078       17.8402592678       32.4627680498
  C        -2.5126743620       15.7943019454       33.6612457631
  H        -2.8923471001       13.7507892072       34.3857243184
  C         4.3284732836        9.1162177945       12.4973456622
  N         4.2027395015        7.8045053449       12.3755546679
  O         3.4930628340        6.0714127484       13.7073589241
  H         6.3633230936       10.8001328345       29.6794474273
  H         5.7923328417        9.4190349836       28.8676421664
  C         6.0129674353        9.0029045628       30.9157726954
  H        -5.3110734076       10.8279754761       25.1880323062
  H        -6.1249567304        9.3746156022       25.2987734424
  C        -7.4686729584       11.1324974961       25.6483847534
  C        -2.8030746040       16.5336818771       34.8686479216
  S         4.5237293929       10.0525025966       11.0272897877
  C         4.2692529647        7.0102330106       11.1911608158
  H         7.0461962785        9.0806286020       31.1715214161
  H         5.5753673784        9.4640987235       31.8137632860
  C         5.5476507623        7.4919463545       30.8618188331
  H        -7.4387116840       12.2042609594       25.3860654034
  H        -8.1111488019       10.9087430073       26.5542424214
  C        -8.3169495658       10.5817755597       24.5502944654
  H        -2.4505169449       17.5526525892       34.7417330581
  C        -3.1606747741       16.1757537125       36.1898774372
  H         4.8400776569        7.3259171290       10.3176455188
  H         4.7165769012        6.0349802195       11.4498424309
  C         2.8512454589        6.8591976220       10.6486699496
  H         6.0307234231        6.9636713939       30.0743995970
  H         4.4568387217        7.5088262590       30.7498382204
  C         5.8524701277        6.6378633948       32.0591812102
  H        -8.2811693484       11.1471407642       23.5938257591
  H        -8.1290393843        9.5889257404       24.3118334380
  C        -9.7981883954       10.5217584741       25.1070103465
  S        -3.5197904263       14.6116645898       36.9278896852
  C        -3.1607151563       17.2842849751       37.1836635059
  H         2.6393335049        7.8689480862       10.3350581808
  H         2.7512989479        6.1502166533        9.7543401727
  H         2.0526751872        6.6059820176       11.3367946606
  H         5.1322097038        6.6780668013       32.7777460501
  H         6.7617355270        6.8645648461       32.5790615328
  H         5.9361236810        5.5811497336       31.6746066612
  H       -10.0097970378       11.3933130051       25.7168109857
  H       -10.0895917783        9.6417320276       25.6687806270
  H       -10.5499012996       10.4792809348       24.2771502951
  C        -3.5790709095       15.4273942354       38.4873204647
  N        -3.6144473853       16.7771591617       38.4167255607
  O        -3.0101891097       18.4249915475       36.9069949239
  S        -4.0841048479       14.6922115244       39.9921170644
  C        -3.7561649372       17.6314981523       39.5703947689
  H        -4.1774749922       18.6208944494       39.3999666302
  H        -4.4765582189       17.2615365597       40.2397371647
  C        -2.4484904295       17.7717908199       40.3300415703
  H        -1.9278323575       16.8349200184       40.7463919048
  H        -1.7428789036       18.2205465733       39.6054868737
  H        -2.5669720358       18.5343690072       41.2046229512
  H         6.8363648847       10.8528471801        3.4960602340
  C         7.5494040767       10.0214238641        3.5012715297
  H         6.8985706214        9.1513832100        3.6860573939
  C         8.4390602504       10.1878854991        4.7687774291
  C         8.3506625457        9.9906505336        2.1651429251
  C         7.7097169212       10.5335254810        5.9990810965
  H         8.9979123259        9.2006796663        4.8472881142
  H         9.2293975441       10.9046565406        4.4393287380
  H         8.8012848342       10.9792778720        1.8799994497
  H         7.7514027989        9.5649040540        1.2875126897
  H         9.1702619679        9.2407936038        2.1501824441
  C         6.8883534553        9.3789801483        6.4832188567
  H         8.3380229929       10.8741206850        6.8291610833
  H         6.9155987034       11.2925207760        5.7922600754
  C         6.0866605715        9.6965236767        7.7284292773
  H         7.4207143032        8.4403567975        6.6446236184
  H         6.2184599366        9.1127279913        5.7307620230
  C         4.8628454842       10.6720031718        7.5383547913
  H         6.8260168127       10.0723954114        8.3790691780
  H         5.7460396643        8.7275620912        8.0427920927
  C         3.6983321275       10.1517873094        6.7502406006
  H         4.4205380410       11.0198959868        8.4496745223
  H         5.1463489652       11.5540563579        7.0011498485
  C         2.4442592915       11.0483980664        6.6378808361
  H         3.4141380842        9.2848896082        7.2807194224
  H         4.1938608271        9.9171764371        5.8164345790
  C         2.8186770531       12.4035613701        5.9221321896
  C         2.0891098017       11.7861149242        7.8745681742
  C         1.2673062281       10.3231044452        5.9664879916
  C         2.5295214854       13.5162441750        6.7386533630
  C         3.4642992204       12.6986792294        4.7040290592
  C         2.1162825400       13.1602179239        8.0016286977
  C         1.7497597800       11.1258577899        9.0538508773
  H         1.6834316871        9.8370581036        5.1096305576
  H         1.1204539111        9.4808605389        6.5998975261
  C         0.0019838096       11.0966849830        5.6846418005
  S         3.0103254906       14.9573325353        5.9229141943
  C         3.6326441672       14.0417546058        4.6019523476
  H         3.8436504453       11.8735994934        4.0883147191
  C         1.8060298814       13.7568867896        9.2123945682
  H         1.6605447776       10.0362547942        9.0590900878
  C         1.4762264017       11.7243137415       10.2527443348
  H         0.2771597993       12.0855466446        5.4033335436
  H        -0.6096574234       11.1488067995        6.6390357608
  C        -0.7528011098       10.4610663984        4.4928797770
  C         4.1869239059       14.7221451975        3.3625565967
  C         1.5280926862       13.0844130575       10.3786873075
  H         1.8459104996       14.8579710940        9.1568732613
  C         1.1816358081       11.2247840637       11.5075188898
  H        -1.6617324825       10.9747465542        4.4608042008
  H        -0.9450342899        9.3931524956        4.4761766672
  C        -0.0066767291       10.8368575762        3.1972843664
  C         4.3268363169       16.1536452477        3.1176867281
  C         4.6398012962       13.8135661676        2.2303295167
  C         1.1854566086       13.6834898377       11.7074026235
  C         0.9579266191       12.2744576925       12.3682969900
  S         1.0083887243        9.7093324896       12.2329592261
  H         0.9384385450       10.3234258356        3.2187362935
  H         0.1517769396       11.9538831782        3.0522383195
  C        -0.7578906892       10.4113984008        1.9485611079
  N         3.9950975723       17.1547467630        3.9641970105
  C         4.6614002642       16.5416116600        1.8597091560
  C         5.0502503588       14.3087466371        0.9964782440
  H         4.5179816166       12.7614740903        2.2790663076
  C        -0.1762320802       14.4084305425       11.5145266419
  C         2.3563897019       14.5003843239       12.2920014367
  C         0.6255330659       11.8606217839       13.6871191336
  C         0.5470111438       10.5000982240       13.7408334898
  H        -1.3868844465        9.5927062052        1.9929121727
  H        -1.3783770198       11.2910035766        1.7587480480
  C         0.1660924160       10.0792919080        0.7984103299
  S         4.2307627070       18.5624452141        3.2345506213
  N         4.6810425803       17.9131620330        1.7698794836
  C         4.9554072259       15.7224433997        0.7621561799
  H         5.5074940082       13.6925479422        0.2318709073
  H        -0.1031336779       15.1811767107       10.7135565327
  H        -0.5457958729       14.9178435602       12.4304564630
  C        -1.2910147871       13.4431906462       11.0789760949
  H         2.6927062573       15.3102971662       11.6405854956
  H         2.0460288559       15.0383135579       13.1947594323
  C         3.4897264457       13.6325592180       12.6939266571
  H         0.5316346402       12.6013398948       14.4837762615
  C         0.3333815318        9.7498259015       14.9922606541
  H         0.5395843637        9.1033042194        0.8050564498
  H         1.1028205301       10.5960958931        0.9071946367
  C        -0.3129838146       10.4752218062       -0.5885210288
  C         5.2122882670       16.3339317506       -0.5206345746
  H        -1.0515465352       12.8085397118       10.1938274046
  H        -1.4065251352       12.6137837728       11.8150329334
  C        -2.6012948072       14.1434915720       10.8358100365
  H         3.7010110427       12.8919203593       11.9087201702
  H         3.1512507468       12.9993943119       13.4939364119
  C         4.7293913993       14.4273264439       13.2034439137
  C         0.2109178480        8.3507935288       15.1413846429
  C         0.1653964851       10.5386464907       16.2466290711
  H        -0.4284616362       11.5148000889       -0.6894564071
  H         0.5295986363       10.2519597803       -1.3157606980
  C        -1.6045310009        9.9166281687       -0.8814139371
  H         5.1735935348       17.3891003606       -0.5263874124
  C         5.5469215597       15.9179104498       -1.7580538469
  H        -2.4720365537       14.8353803682       10.0274540933
  H        -2.9207551588       14.7767113984       11.6254657971
  C        -3.7761991616       13.2295068780       10.4111434797
  H         5.1361949954       14.7195666004       12.2837719114
  H         4.4840530742       15.3584024554       13.6810813599
  C         5.7060038386       13.6629526755       13.9820151034
  N         0.4200729006        7.3928934116       14.1176375823
  C         0.0249256151        7.7388152310       16.4095380557
  C         0.0940563110        9.9198459231       17.5032204965
  H         0.3176271114       11.6611194040       16.2056987420
  H        -2.3470846658       10.6305545465       -0.4941745094
  H        -1.7438867303        8.9890637634       -0.3454095325
  H        -1.7607308167        9.8508102031       -1.9744524950
  S         5.8118812709       14.3065088491       -2.1475067345
  C         5.7612102601       16.8835966686       -2.7975237594
  H        -3.4809131061       12.2022933874        9.9557498194
  H        -4.4313700122       13.0927675666       11.2827796542
  C        -4.5982556624       13.9623830684        9.3241582330
  H         6.1188637308       12.8542283252       13.4505527933
  H         5.0222225219       13.1691951388       14.6678138079
  C         6.7295516102       14.3314376561       14.8604874323
  S         0.5744047243        5.9226467278       14.8232513821
  N         0.1553533626        6.3298944109       16.3236103955
  C        -0.2010260312        8.4455868842       17.6518400773
  H         0.1226248723       10.5166564335       18.4131808606
  C         5.9311271458       14.8995220948       -3.8233795696
  N         6.0468079985       16.2695867097       -3.9650114613
  O         5.7218138287       18.1001563038       -2.5997880736
  H        -5.1176602020       14.7987596585        9.9100707391
  H        -3.9583027851       14.4649621171        8.5538642196
  C        -5.6254539367       13.0860004074        8.6237705701
  H         6.1533162427       14.8987460800       15.6600197494
  H         7.3468292716       13.6730003868       15.3600215852
  C         7.3889789886       15.5515757464       14.0820616613
  C        -0.5816861219        7.6744281644       18.7913406781
  S         6.5514689007       13.9842282937       -5.1293200395
  C         6.1131305093       16.9663881424       -5.2097621113
  H        -5.2383754534       12.3663928529        7.8734647723
  H        -5.9977435227       12.4105484527        9.4302753941
  C        -6.7578375796       13.9385606924        8.2013109612
  H         6.7733022477       15.9774309576       13.2973020046
  H         8.2015799189       15.1326262963       13.5568059352
  C         7.9115700183       16.6497475982       15.0673385450
  H        -0.4464517658        6.5941919004       18.7561259914
  C        -1.0103433742        8.0243665090       20.0487205193
  H         6.9054198222       16.5073394622       -5.8564086352
  H         6.4347411506       17.9035544252       -4.9934481610
  C         4.7805191973       17.1491049251       -5.9640019672
  H        -7.2251864071       13.6019806515        7.2496973663
  H        -6.4834778194       14.9326941647        8.0221976756
  C        -7.8761052067       14.0942651001        9.2411893126
  H         7.3102137156       16.7760662326       16.0383600454
  H         8.9933864435       16.4897335085       15.2608729712
  C         7.9317168299       18.0265175344       14.5021744777
  S        -1.3896122673        9.6021535955       20.5679009104
  C        -1.2004405198        6.9120879617       20.9925088295
  H         3.9802228961       17.3410569771       -5.3303056204
  H         4.6028499263       16.2070506987       -6.4515319603
  H         4.7080293457       17.8988692822       -6.6621954312
  H        -7.5577824149       14.5142747092       10.1433572378
  H        -8.6993917939       14.6523034944        8.8249068786
  H        -8.1603030364       13.1742573112        9.5762071463
  H         8.1495883620       18.0334337934       13.4546623567
  H         6.9742374534       18.4763714217       14.6574981814
  H         8.6520027875       18.7392939265       14.8999610147
  C        -1.9004911788        8.8397590511       22.0741902682
  N        -1.9470656911        7.4757583365       22.0071404217
  O        -1.0208591046        5.7121893203       20.8774489733
  S        -2.7911176105        9.6449326853       23.4045717786
  C        -2.1692433516        6.6843056049       23.2148490562
  H        -2.1956233853        5.6054521599       22.9971796064
  H        -3.1832460231        6.8894890597       23.5304063807
  C        -1.0496005391        6.7651457480       24.2827099620
  H        -0.0628070064        6.8028520695       23.9253121837
  H        -1.1292801202        5.9814855826       25.0405730200
  H        -1.1155195287        7.6973404250       24.7949364972
