352
i =
  H        -2.5736244701       15.2570586295       16.4977033774
  C        -2.6853055549       14.1600961107       16.4591705225
  H        -3.7237788136       13.9902428350       16.7805040641
  C        -1.6964031405       13.5229039719       17.4649937750
  C        -2.4830638140       13.7963388031       15.0175341189
  C        -1.7741222167       14.1564973481       18.8501667840
  H        -1.9353484883       12.4858870846       17.6719128448
  H        -0.6784052707       13.6479474156       17.0601659512
  H        -1.5504241826       14.1854412122       14.6003269849
  H        -2.4578907609       12.7262782897       14.8793282436
  H        -3.2188065509       14.1383849247       14.2408305378
  C        -1.9512169487       13.0429388388       19.9433060904
  H        -2.5488275942       14.8969505863       18.9828159570
  H        -0.8176234093       14.6724631916       18.9521049976
  C        -2.1843942262       13.5628574846       21.3558805279
  H        -2.7747848312       12.3283360267       19.7664339136
  H        -1.0489496718       12.4090639212       20.0163020994
  C        -1.2176763140       13.0353079794       22.4956405593
  H        -3.1775529333       13.2213349974       21.5520150599
  H        -2.2511619296       14.6432236215       21.4244451808
  C         0.0595878083       13.8500409643       22.3862486930
  H        -1.7643443589       13.1422594342       23.4167386037
  H        -0.9680704621       11.9574657501       22.3097970807
  C         1.2548296642       13.0978603564       23.0884150950
  H         0.3375048849       14.0625824980       21.3156294708
  H        -0.0363684750       14.8120716777       22.9539766900
  C         1.5735930405       11.7056911321       22.4240498126
  C         0.8780642835       12.3855361071       24.3236314694
  C         2.4897635045       14.0072694688       23.1254837902
  C         1.2903104324       10.5975182202       23.2339297536
  C         2.1084294997       11.3136273131       21.1760394227
  C         0.8400162967       11.0209566093       24.4545025577
  C         0.5891073316       13.0007097917       25.5624487065
  H         2.6586875539       14.2791196739       22.0366658782
  H         2.2077751266       14.8893555047       23.7085268750
  C         3.7301245357       13.3181127190       23.7271551961
  S         1.7742484436        9.1085680349       22.5934907992
  C         2.3728497590        9.9534948331       21.1264953298
  H         2.2278862014       12.0961824141       20.4353489452
  C         0.4772334103       10.4449365842       25.6882413655
  H         0.6672994443       14.0550008139       25.6207694957
  C         0.1944089428       12.4180502808       26.7861771660
  H         4.1010266527       12.5017863385       23.0210019750
  H         3.5320532099       12.8283513651       24.6984637283
  C         5.0734380907       14.1127250404       23.8922017105
  C         2.8540806744        9.3035097454       19.8444175783
  C         0.1436336383       11.0759180808       26.8705824760
  H         0.3316569498        9.3768177175       25.6925988614
  C        -0.2477382460       12.8576184487       28.0286215406
  H         5.7896338236       13.4227691378       24.3376446213
  H         5.0742956559       14.8878432738       24.7028515286
  C         5.6410397582       14.7253884533       22.6269573189
  C         2.7929212239        7.9403256400       19.5352506265
  C         3.3090512481       10.1656645996       18.7343192518
  C        -0.3544408763       10.4355410817       28.1284112929
  C        -0.5424583374       11.7852628314       28.8421952848
  S        -0.3062482086       14.3003451202       28.8364448100
  H         6.4945692470       15.4060471150       22.8281101162
  H         4.8463044624       15.3819479491       22.1896790012
  C         6.3246974506       13.7213730720       21.5603635188
  N         2.5747269601        6.8866687949       20.4462627295
  C         2.9757972487        7.4352422403       18.2542636843
  C         3.6306096395        9.6139854384       17.5074023976
  H         3.4268948893       11.2306591455       18.8885412259
  C         0.8153336781        9.7128544673       28.8392213212
  C        -1.6286470580        9.6010939932       28.1026720214
  C        -1.0034340438       12.1673695448       30.1074438819
  C        -0.9213249787       13.5254533057       30.2617876748
  H         7.3752574526       14.1366846397       21.3665560532
  H         6.6023417145       12.7799675934       21.9780845994
  C         5.5183617186       13.5114290670       20.2937273101
  S         2.7759343833        5.4761437494       19.6557246468
  N         2.9741559204        6.0190117413       18.1344924546
  C         3.3810818448        8.2415799959       17.1629240371
  H         3.9182545098       10.2251894058       16.7030418986
  H         1.0543577468        8.8236111836       28.1985923526
  H         0.4228062168        9.2113539354       29.7029343884
  C         2.0871305932       10.5537787710       29.1273191148
  H        -1.6733695408        8.9502346167       27.3196851489
  H        -1.8524957363        9.0623225875       28.9835225607
  C        -2.9758826969       10.3983477500       27.8717831144
  H        -1.4049635718       11.4147300478       30.7530765763
  C        -1.2648390631       14.2784563385       31.5111448293
  H         4.6789133952       14.2543467935       20.3000269334
  H         4.9399077764       12.5929131654       20.3722632115
  C         6.4138422946       13.5132943772       19.1115949808
  C         3.5203906393        7.6945612481       15.8532235611
  H         2.3517718744       11.0223363288       28.1935871062
  H         1.8999688186       11.3393417263       29.8442761266
  C         3.2355967763        9.7106791810       29.4969004754
  H        -2.7745244875       11.2769410823       27.2129361028
  H        -3.3072775106       10.9141031279       28.8505886855
  C        -4.0797712339        9.5645629115       27.2107013269
  C        -1.3339941455       15.6992384278       31.6078126038
  C        -1.4713901129       13.5898605691       32.8020001969
  H         6.5915008686       14.5835661818       18.9885279857
  H         7.3530410774       12.9200284797       19.4674905944
  C         5.8281712956       13.0581756609       17.7137276307
  H         3.3273455931        6.6612314204       15.7100892237
  C         3.7270403341        8.2317339594       14.5991347861
  H         3.5061939854        8.9111523797       28.7576118513
  H         2.9220543883        9.0868891505       30.3552078488
  C         4.4369695470       10.5101793505       29.9536980141
  H        -3.8452827556        9.3090617673       26.1869781761
  H        -4.2581727881        8.6244788343       27.7271756785
  C        -5.3399301283       10.4550860952       27.1424065050
  N        -1.1238298646       16.4719887485       30.4496704741
  C        -1.6589915438       16.4191123290       32.7412985798
  C        -1.8481936895       14.2517728295       33.9629607789
  H        -1.2448451303       12.5285280657       32.9869508965
  H         6.5227091078       12.5041261098       17.1073237508
  H         5.0306550148       12.3126025335       17.8999107586
  H         5.4092505901       13.8604350627       17.1357708257
  S         3.8931912565        9.8891193823       14.2140913260
  C         3.9068280448        7.3341335550       13.4299051706
  H         4.5295728806       11.3792732827       29.3202562886
  H         4.3065422061       10.8871961948       30.9392021374
  C         5.7619274820        9.6843243470       29.8220858644
  H        -4.9406318479       11.3255540553       26.6559418824
  H        -5.7527770066       10.7737207234       28.0960719681
  C        -6.4826337686        9.6945421834       26.4188672570
  S        -1.0215709294       17.9939134373       30.9546049326
  N        -1.6023416189       17.7722122922       32.4821086210
  C        -2.0360143763       15.7495028369       33.9810264303
  H        -1.9245316195       13.6992545381       34.8609414022
  C         4.2500573365        9.3752157112       12.5819572986
  N         4.2470288914        8.0309283196       12.3792447696
  O         3.7862630487        6.0997554419       13.4883114688
  H         6.5785745605       10.4053329245       29.9072392357
  H         5.8238501567        9.2062440557       28.8814335165
  C         5.9356326936        8.6434667912       30.9367961085
  H        -6.0627428724        9.5188262115       25.4517793016
  H        -6.7965403282        8.7626450001       26.8984934109
  C        -7.6950685317       10.5855707008       26.2480095670
  C        -2.4269327583       16.4966191828       35.0677863205
  S         4.9140349267       10.4526258245       11.3657901464
  C         4.4112442089        7.4227567145       11.0689484076
  H         6.6077337160        8.9499646317       31.7331947222
  H         4.9244755393        8.4850677272       31.4001076813
  C         6.4712945215        7.2525040394       30.5152577258
  H        -7.3189586444       11.5614413480       25.8648403949
  H        -8.1087276080       10.8104003275       27.2173259996
  C        -8.6896320921       10.0135705658       25.1836454351
  H        -2.0994808900       17.5212948765       34.9606991135
  C        -2.8843138129       16.1974542280       36.3140792548
  H         4.8604699351        8.0932888421       10.3093235762
  H         5.1249511444        6.5791398568       11.1552076560
  C         3.0593323310        6.9817616890       10.6430732256
  H         7.5422995854        7.2344140753       30.3196053822
  H         6.0661591275        6.9293022298       29.5238235603
  C         6.2566374926        6.2275842632       31.6128829314
  H        -8.7274792266       10.6618709462       24.2805861708
  H        -8.3603039996        9.0708982921       24.7459359198
  C       -10.1011035756        9.8968410972       25.8736836735
  S        -3.2752176368       14.6557424383       37.0050742059
  C        -2.9347058647       17.3265982257       37.2866925519
  H         2.6696937269        7.5588357468        9.7648511794
  H         3.2091449355        6.0399523209       10.1691715432
  H         2.3186709842        6.8640116768       11.4204758698
  H         7.1534420490        5.6086554651       31.6790280824
  H         5.3192204061        5.5820237507       31.3472805409
  H         6.2184802361        6.5997450145       32.6428416882
  H       -10.0399969166        9.0528975534       26.6664658840
  H       -10.8689768518        9.6621078545       25.1269515706
  H       -10.4581051848       10.7947255098       26.3379716202
  C        -3.5322999430       15.5478318620       38.5106132910
  N        -3.4994560738       16.8370906509       38.4306102168
  O        -2.8042304927       18.4837034346       37.0548662901
  S        -4.0610958669       14.8120525963       40.0888018951
  C        -3.8079545295       17.7645767463       39.4739183887
  H        -3.9661640804       18.8418237426       39.2120214088
  H        -4.7214541017       17.5021498815       40.0056751492
  C        -2.6200022982       17.8838413484       40.4799642579
  H        -3.0379638059       17.9835093431       41.5222545650
  H        -1.9654935750       16.9995669400       40.4268358806
  H        -1.9229751128       18.6949344554       40.1927458202
  H         7.4215984838       11.0992268537        3.1964929202
  C         8.0835811734       10.2412493090        3.3475143912
  H         7.4601655020        9.4554999956        3.7604013981
  C         9.0360841050       10.5580766752        4.5557585895
  C         8.8636341901        9.8193447760        2.0958367650
  C         8.3821717685       10.8779496272        5.8413061276
  H         9.5184900436        9.6181843469        4.8257347816
  H         9.8275477658       11.1910319389        4.1418350035
  H         8.3391927202        9.1044308446        1.4368130431
  H         9.6982543074        9.1773053174        2.3384372953
  H         9.2193709713       10.6119751073        1.4546834578
  C         7.5543393214        9.6651998387        6.3772086953
  H         9.0620872550       11.2170609084        6.5369334177
  H         7.5631689377       11.6533265609        5.6844751145
  C         6.9165411255        9.8264502771        7.7331871416
  H         8.2031739182        8.8053106693        6.4934786134
  H         6.7893775862        9.3761956839        5.6749420549
  C         5.5931989872       10.6323320646        7.7038999809
  H         7.5968405281       10.3632472951        8.4072505243
  H         6.7934363889        8.7958105530        8.0353953176
  C         4.4271654111        9.9259746315        7.0258655738
  H         5.2186814007       10.9355132918        8.6591884924
  H         5.7100346889       11.5428855145        7.1147305718
  C         3.0786250983       10.7337451598        6.7358009863
  H         4.1199757287        9.1567217423        7.7770750506
  H         4.7511244340        9.4674924204        6.1564351313
  C         3.4430069016       12.0771064755        6.0263622685
  C         2.6253494582       11.4270895087        7.9243834327
  C         1.9923372020       10.0128501560        5.9862422715
  C         3.1445158550       13.2171138937        6.8071529332
  C         3.8632265705       12.4825492226        4.7739824056
  C         2.5630959542       12.7819666742        8.0318290398
  C         2.3841663772       10.8025835262        9.1677995125
  H         2.2902046574        9.4906852978        5.0615220557
  H         1.7422316280        9.2858331199        6.6850420514
  C         0.6892134607       10.8154415788        5.7700908911
  S         3.4714222340       14.7471140277        6.1003192281
  C         3.9141433577       13.8282253161        4.6541870058
  H         4.0300924383       11.7276899928        4.0048479742
  C         2.1357987188       13.3875173552        9.2141871966
  H         2.5556106544        9.7278324798        9.2685527246
  C         1.8220754299       11.3768681121       10.2933425090
  H         0.9551782912       11.7824972392        5.5069642641
  H         0.2095816519       10.8460638882        6.7440381085
  C        -0.3370653246       10.3144886153        4.7822798872
  C         4.4258134815       14.5621254962        3.4805114442
  C         1.6362134187       12.7525410088       10.3620291729
  H         2.3454487710       14.4336773817        9.2920662922
  C         1.3574243415       10.9434998527       11.5392802453
  H        -1.3911860815       10.3956191533        5.0888971685
  H        -0.1561720613        9.2524073087        4.7133287268
  C        -0.0864224315       10.9352897172        3.4255602453
  C         4.3646877306       15.9585894726        3.2534663341
  C         4.9169895367       13.7032127099        2.3668789579
  C         1.2223463906       13.4221789921       11.6629372414
  C         0.9371828093       12.0174923753       12.3047293830
  S         1.2080152548        9.3773992966       12.2692339118
  H         0.9320644706       10.8449686392        3.0777356124
  H        -0.3058590974       11.9734946581        3.4640072105
  C        -1.0650954556       10.3599359706        2.4244378745
  N         3.9463220345       16.9568180066        4.1312795991
  C         4.7093442555       16.4769778742        2.0375650897
  C         5.4351845858       14.2718603907        1.2275993897
  H         5.0119591154       12.6253291747        2.4852079751
  C         0.0127475496       14.3730044133       11.6304615654
  C         2.4767929828       14.0537310806       12.3015323267
  C         0.3944678584       11.5357893784       13.5017049295
  C         0.6016928247       10.2179757072       13.6520972239
  H        -2.0312371633       10.1368854113        2.8736784779
  H        -1.2279071973       11.0319700941        1.6470565396
  C        -0.4891604484        9.1367874585        1.6008619392
  S         4.0266282009       18.4072505836        3.3609470842
  N         4.6055448987       17.8761718602        1.9353138798
  C         5.2931794060       15.7334289468        0.9692863733
  H         5.9534686388       13.6366710639        0.5017538962
  H         0.2698065094       15.1453353567       10.9315017578
  H         0.0479691932       14.7494624517       12.6895310223
  C        -1.2603814736       13.6337845756       11.1325150651
  H         3.2914885358       14.0934478875       11.5536457834
  H         2.2832719420       15.1291895108       12.5194807521
  C         2.9993265085       13.4691672164       13.6491678865
  H        -0.0164705084       12.2484929842       14.2681085353
  C         0.2900097453        9.4489646700       14.9316277222
  H        -1.3263080461        8.4109148560        1.3342057409
  H         0.1256785961        8.5797415102        2.2657886151
  C         0.2452739968        9.5069462445        0.2794535729
  C         5.5812677989       16.4191598541       -0.2702310210
  H        -1.0691415831       13.0687563662       10.2344400334
  H        -1.5355171229       12.8253546156       11.8497739475
  C        -2.5094350439       14.3910401054       11.1897262085
  H         3.2962923177       12.4344198447       13.5806261398
  H         2.1374227702       13.4506866015       14.3179606986
  C         4.1601418816       14.3323583870       14.2946057272
  C         0.3045834708        8.0118331016       15.0649887307
  C         0.1654291094       10.1763780205       16.1677575490
  H         0.6511751104       10.4939756139        0.4424363559
  H         1.1339992606        8.9136039954       -0.0206504273
  C        -0.6604554399        9.5313284960       -0.8707133233
  H         5.3710006099       17.4212673894       -0.2422916400
  C         5.6680784532       16.0163116568       -1.5953809499
  H        -2.4479649452       15.1660464178       10.4601179601
  H        -2.5185988803       14.8762175837       12.1620333273
  C        -3.7282144778       13.4399459508       11.1438549733
  H         3.9672087201       15.3938846028       14.1672038833
  H         4.1481999814       14.1826269773       15.3461450937
  C         5.6120493490       14.0070803462       13.8796670501
  N         0.5146145179        7.0772890955       14.0343134443
  C         0.0550237049        7.3844769103       16.2839662345
  C        -0.1434494895        9.5394679918       17.3923726871
  H         0.3044363999       11.2238669687       16.2370212667
  H        -1.4917408413       10.2011694037       -0.7575378401
  H        -1.0709102420        8.4672161136       -0.9678250905
  H        -0.0472343876        9.8184530063       -1.7386511678
  S         5.9839447914       14.3653178754       -2.0981789642
  C         5.7233589918       17.0210366474       -2.6956343694
  H        -3.3926645870       12.4906050898       10.7561777728
  H        -4.1710087776       13.3024491301       12.1300511863
  C        -4.8187908719       13.9024506331       10.2084100657
  H         5.6576977322       13.5529650742       12.8940737945
  H         6.0570291587       13.2430320738       14.5863087641
  C         6.5844855506       15.2060460962       13.7503174604
  S         0.4107284430        5.5732064018       14.6154086568
  N         0.1497595767        6.0194091736       16.1283511840
  C        -0.2522145892        8.0793275789       17.4888345532
  H        -0.2201842155       10.1646227343       18.3220630479
  C         6.0497614482       15.0142816907       -3.7587678161
  N         5.9504265241       16.3853912235       -3.8497611029
  O         5.6185835130       18.2437430393       -2.5483287317
  H        -5.6089395079       14.5179490036       10.6862128723
  H        -4.3619499199       14.5843665645        9.4262489014
  C        -5.4590116559       12.8349270683        9.3808117011
  H         7.5328050976       14.8937242269       13.3916299713
  H         6.2498944741       16.0093030785       13.0919958244
  C         6.6593284573       15.8577507660       15.1393536469
  C        -0.4445168661        7.2856294978       18.6510303278
  S         6.3142456262       14.1543126860       -5.2440037607
  C         5.9451328574       17.0868642500       -5.1695090651
  H        -4.7822313738       12.5492245023        8.5688247353
  H        -5.7945343743       11.9377674325        9.9484585996
  C        -6.7409964089       13.3654713785        8.6923162689
  H         6.9423658087       15.1219597866       15.8888385462
  H         5.7376231111       16.2678450627       15.5609665091
  C         7.8698423693       16.7955676456       15.2431993134
  H        -0.0310669280        6.2478989306       18.5742438640
  C        -0.7450478917        7.6022268414       19.9420107404
  H         6.5375547193       16.6327651523       -5.9123477939
  H         6.1459085206       18.1704320474       -5.0554390881
  C         4.5222947213       16.9821115692       -5.7209283141
  H        -6.7008331715       12.8549539436        7.7295842791
  H        -6.4005946140       14.3159792554        8.4983614822
  C        -8.0839320649       13.4447352566        9.5231580063
  H         8.1258734972       16.7892609379       16.3417014234
  H         8.6670105606       16.3315018105       14.6907307362
  C         7.6340418579       18.2197066998       14.6980109017
  S        -1.2443114644        9.1643880307       20.4603266829
  C        -0.6729796410        6.4987529087       20.9315842194
  H         4.4932077452       16.0791685677       -6.2632666266
  H         4.2956438283       17.7716208732       -6.4031906715
  H         3.8580562130       16.9608427611       -4.8346686675
  H        -8.9913775965       13.5396827272        8.8972689273
  H        -8.3363097221       12.6446716856       10.2015905511
  H        -8.0244288224       14.3999003183       10.0244251004
  H         8.5317519561       18.7173063335       14.6387661681
  H         7.3085662780       18.3300976156       13.6874306769
  H         6.9245560208       18.6687864489       15.3321935204
  C        -1.6432554848        8.3151098380       22.0364103649
  N        -1.3190801927        6.9997750830       22.0476352661
  O        -0.4123484661        5.3297348380       20.7313266399
  S        -2.4627660530        8.9767866047       23.4085680295
  C        -1.5664940567        6.1163486333       23.2155524203
  H        -1.7890072475        5.1052222434       22.9418197507
  H        -2.5097962874        6.4807904310       23.6344549762
  C        -0.4501500245        6.3455495853       24.2509340102
  H         0.4745497005        5.9024062309       24.0148850025
  H        -0.8015728660        5.9180287565       25.2190122604
  H        -0.2673471614        7.3807620678       24.4231698596
