352
i =
  H        -3.9671509369       14.8552766232       17.0710172071
  C        -3.7498819948       13.7827378095       16.9710271597
  H        -4.7019686140       13.2350990652       17.2251889058
  C        -2.6360327142       13.3356945659       17.9507160179
  C        -3.4861574708       13.3285381318       15.5652217817
  C        -3.2361770750       13.3972862113       19.3151338487
  H        -2.2829667977       12.3586542520       17.6673774454
  H        -1.8824396140       14.0864532235       17.7424779323
  H        -2.7315055035       13.8752922664       14.9988823776
  H        -3.2790938073       12.2692742988       15.5894784326
  H        -4.4974386953       13.3371410135       15.0128141066
  C        -2.3317308920       12.8453402563       20.3537479740
  H        -4.1936903143       12.8854081155       19.2955664652
  H        -3.6189526166       14.3916913580       19.5341386616
  C        -2.6725741548       13.0825334460       21.8227685642
  H        -2.4523946400       11.7648572829       20.3593475685
  H        -1.3204740114       13.0358654767       20.1288328603
  C        -1.4472588633       12.5755596449       22.5905058362
  H        -3.5396795644       12.5166539126       22.1058385329
  H        -2.8203559161       14.1775311010       21.9804734853
  C        -0.3298580003       13.4756273934       22.8656673322
  H        -1.8638090718       12.1600759939       23.5353021038
  H        -1.0432775116       11.7331026150       22.0165126546
  C         0.9449878791       12.8081291104       23.5125393354
  H        -0.1023764266       14.0368442910       21.9680702679
  H        -0.5273794192       14.2944811435       23.5332191894
  C         1.3303408823       11.4872962053       22.7245706707
  C         0.5334405881       12.0702336976       24.7351130547
  C         2.0510232260       13.8218226231       23.7479424252
  C         1.1288477650       10.3528991627       23.5451728873
  C         1.7810710879       11.1697376900       21.4492290964
  C         0.6498278723       10.7108650202       24.8074764492
  C         0.0680916162       12.6507527680       25.9200844465
  H         2.2061751315       14.5001095504       22.9081355752
  H         1.6045796799       14.5147955583       24.5131962008
  C         3.3514691127       13.2458364932       24.3834433571
  S         1.3564781016        8.9201943890       22.6752105399
  C         1.9339849375        9.8601624798       21.2830227248
  H         1.9918834350       11.9765030486       20.8083433654
  C         0.3239061806       10.0204200214       25.9459658364
  H         0.0000412463       13.7276321076       25.9348907770
  C        -0.2684804353       11.9300895500       27.0407493900
  H         3.7141008634       12.4738626617       23.6716629252
  H         3.1423156358       12.9220231833       25.3627635307
  C         4.2879043238       14.3916310234       24.7201880567
  C         2.4331684456        9.0884359949       20.0858385753
  C        -0.2130715411       10.5937843524       27.0835456757
  H         0.5048244064        8.9234424530       25.9737159656
  C        -0.6544880295       12.3811860645       28.3020955477
  H         5.0667677675       14.0793646732       25.4167572107
  H         3.7495116748       15.1937280065       25.2013509992
  C         5.0285876535       15.0015373028       23.5684366856
  C         2.4080163787        7.7042208756       19.8769947584
  C         2.8046716793        9.9611151342       18.9642887745
  C        -0.5933395728        9.9328875238       28.4088823675
  C        -0.8764412684       11.2906050068       29.0850243834
  S        -0.9341606350       13.8142998776       29.1840277758
  H         5.7787110303       15.6370670231       24.0267098966
  H         4.4674496811       15.5577715485       22.8664771077
  C         5.9659993810       13.9804849261       22.8046122576
  N         2.1311096447        6.7096774136       20.8588045124
  C         2.6637911331        7.0957768925       18.6581564322
  C         3.1536380722        9.3216703958       17.7474892249
  H         2.8962026583       10.9843951939       19.1032427823
  C         0.5646201209        9.3003372661       29.1563084437
  C        -1.8868287143        9.1114137244       28.3264995821
  C        -1.3638146612       11.6618213759       30.3669831381
  C        -1.3270127812       13.0286076367       30.5919705006
  H         6.9774050526       14.1428359285       23.0100015327
  H         5.8611260732       13.0484053510       23.2009551223
  C         5.9005022760       14.0534719196       21.3125449288
  S         2.2256018669        5.2312561924       20.2592321218
  N         2.7252169970        5.6674284690       18.7587418530
  C         2.9528996231        7.8700108343       17.5319557474
  H         3.1880832430        9.9773794474       16.8745453823
  H         0.9070607703        8.3319350990       28.7004771085
  H         0.3281601048        9.1230944520       30.2073620129
  C         1.7943215296       10.2020438990       29.2093193093
  H        -1.6516676699        8.1683938817       27.8104577574
  H        -2.1721779477        8.8276527368       29.3595988389
  C        -3.0349419287        9.9775752124       27.7177361678
  H        -1.5477936091       10.9158915564       31.1171110546
  C        -1.5403276069       13.7780730887       31.9527776362
  H         5.6361734038       15.0558008696       20.9622687361
  H         5.0454241074       13.4561071647       21.0248603319
  C         7.1783206048       13.4886648162       20.6491052809
  C         3.1362907835        7.1396092699       16.3055036355
  H         2.1946432548       10.6309410237       28.2442588594
  H         1.5969885467       11.0717105412       29.7661474287
  C         2.8988520777        9.4392265165       29.7598172417
  H        -2.7473111438       10.4942737968       26.7615718545
  H        -3.3518723541       10.7974135704       28.3148614000
  C        -4.2069281613        9.0808462761       27.4020501808
  C        -1.4955471405       15.1750226948       32.1168764835
  C        -1.7306151807       13.0004114024       33.2019086684
  H         8.0581281893       13.7701679069       21.1557435643
  H         7.2642000046       12.3850713943       20.8234918317
  C         7.1416527295       13.6331681795       19.0687525028
  H         2.9350035101        6.0591418683       16.3595681489
  C         3.4502232461        7.5193701013       15.0213748099
  H         3.2117286693        8.6211217465       29.0647489299
  H         2.5522782953        8.9232355444       30.6717954448
  C         3.9570285381       10.4476668721       30.2821653610
  H        -3.9295027548        8.4098279797       26.5050900414
  H        -4.4200241763        8.4119409084       28.2273716524
  C        -5.4164445192        9.9871898849       27.2018289169
  N        -1.4885403393       16.0548808732       31.0310217095
  C        -1.7234067494       15.8140855173       33.3110561473
  C        -1.9387153833       13.6245927950       34.4272776185
  H        -1.6706782679       11.9705814619       33.1411750141
  H         7.1892202914       14.6598245827       18.7264512747
  H         8.0005739344       13.1032072495       18.6894919142
  H         6.1345694519       13.1680129141       18.6999635759
  S         3.6080766855        9.0997692833       14.4137028113
  C         3.5459144591        6.4122873409       14.0263096177
  H         3.9829216977       11.2893181111       29.5338926196
  H         3.6193790358       10.8268721426       31.2886053339
  C         5.3799247857        9.9289973155       30.3787341652
  H        -5.1421474614       10.9811702903       26.7435176232
  H        -6.0089100058       10.2533076099       28.0760229455
  C        -6.4261256113        9.3863752187       26.3446437532
  S        -1.3781232653       17.5650530163       31.6280905361
  N        -1.5888477117       17.1784932661       33.1745936001
  C        -2.0268690375       15.1620149651       34.5096711902
  H        -2.1604642484       13.0419993242       35.2699355544
  C         3.8526256025        8.3035948080       12.8137876009
  N         3.8905251484        6.9146810610       12.7966394480
  O         3.4108517530        5.2520007754       14.2768782517
  H         6.0682894433       10.6995036072       30.8064521605
  H         5.7981547436        9.6377339429       29.4058631265
  C         5.4548648575        8.6119687869       31.2580020897
  H        -5.9698426512        8.8770475490       25.4897802639
  H        -7.0163476154        8.5961477501       26.8087878105
  C        -7.2220496621       10.3934149423       25.6416795086
  C        -2.2892170841       15.9469337649       35.6390004585
  S         4.1966931769        9.1740472409       11.2658304084
  C         4.0047451157        6.1239316402       11.5803284614
  H         6.1314578419        8.7994698844       32.1123346580
  H         4.4837795213        8.3234740905       31.6449439317
  C         6.1374489968        7.5193980791       30.3329650361
  H        -6.6517543471       10.7981241480       24.7677521949
  H        -7.3200592085       11.2939152228       26.2455059048
  C        -8.6255047249        9.8650532659       25.2134588153
  H        -1.8199329426       16.8666753156       35.5661312638
  C        -2.9636027085       15.7590948313       36.8055856509
  H         4.7646250834        6.4677998224       10.8982801169
  H         4.4358754172        5.2462105966       12.0537697921
  C         2.5599346077        5.8503487810       11.0379159132
  H         7.0381772199        7.8494079285       29.9277607665
  H         5.4124637336        7.3331139969       29.5489535404
  C         6.3058955958        6.0988732860       30.9551412903
  H        -9.0584800614       10.6103814496       24.5639378076
  H        -8.6148063453        9.0690389298       24.5259116212
  C        -9.7311167910        9.6217082937       26.2960365420
  S        -3.5891560300       14.2525453204       37.4083562099
  C        -2.9456193820       16.8371981915       37.7434573509
  H         1.9224688099        5.1977960733       11.6477477706
  H         2.0202742141        6.8143691122       10.8675340415
  H         2.7151809635        5.3816470348       10.0720346419
  H         5.2625698378        5.7503165745       31.2430508620
  H         7.0063250030        6.2273974660       31.8232374673
  H         6.6418595847        5.3855601640       30.1731245444
  H       -10.1996386160       10.5156989426       26.6560305797
  H        -9.3678899846        9.0095263352       27.1176044535
  H       -10.5561350629        9.1394135071       25.7361735081
  C        -3.9164834634       15.1263195509       38.9243911416
  N        -3.4641287487       16.4024423754       38.8736759395
  O        -2.6132385601       17.9693939807       37.5020771307
  S        -4.8531003486       14.5351387257       40.3397948523
  C        -3.5332814789       17.2553758587       40.0360397005
  H        -3.5003464328       18.2453041738       39.6217766782
  H        -4.4498029723       17.2619609958       40.5842059764
  C        -2.4400434939       16.8299565796       41.0463552191
  H        -1.4696659262       16.7716476963       40.6183456365
  H        -2.3039440597       17.4995350216       41.9629222800
  H        -2.5958550139       15.8345218050       41.3943201602
  H         7.6271040544       10.9375482459        3.6336489864
  C         8.2541025239       10.0857538323        3.9731286638
  H         7.6236142848        9.1246903087        3.9237127738
  C         8.8385900553       10.2002631329        5.4115127300
  C         9.3375397517        9.8606161584        2.8933006701
  C         7.7379262289       10.3279009527        6.4399414362
  H         9.4318937123        9.3026367534        5.5324359795
  H         9.5398046164       11.1174468016        5.4070804065
  H        10.1774634005       10.6124671190        2.8908496449
  H         8.8653917300       10.0632166685        1.8841561743
  H         9.7456467445        8.8538113446        2.7899766074
  C         7.1415998329        8.9931999431        6.7523212648
  H         8.3220746484       10.6091625233        7.2876663097
  H         6.9124345715       10.9750395270        6.1675543762
  C         6.3388575059        9.1354856808        8.0283850477
  H         7.9820746736        8.2718270094        6.9670607419
  H         6.4945218265        8.8031980809        5.9087405305
  C         5.1808259016       10.1150694403        8.0553991217
  H         7.0024957748        9.6556414619        8.6589610374
  H         5.9845038435        8.2038223291        8.4899132811
  C         3.8269610733        9.4738886833        7.6110745247
  H         5.1994090951       10.5676782526        9.0986797527
  H         5.3657898867       11.0042003289        7.4452632735
  C         2.6268535122       10.4906616481        7.4313277941
  H         3.6389349841        8.7871968326        8.3824157511
  H         3.9651129395        8.9757475748        6.6394751566
  C         2.9866754751       11.7991540014        6.7979420559
  C         2.1384824029       11.0799543351        8.7199789280
  C         1.5514407162        9.7421959735        6.6009681364
  C         2.7518082618       12.8199421859        7.6586663039
  C         3.4783866895       12.1677868082        5.5091782096
  C         2.2315006928       12.3970341138        8.8718120784
  C         1.6102661343       10.4342679367        9.8072614798
  H         2.0049049742        9.3431652091        5.6766365350
  H         1.0831942317        8.9505683028        7.2205462689
  C         0.3359907216       10.6855844476        6.2750393954
  S         3.0832187103       14.3208315571        6.9373971119
  C         3.6377928140       13.5520778507        5.4805993388
  H         3.6536202518       11.4208397283        4.8082317052
  C         1.8128015427       13.1163042265        9.9586207270
  H         1.5221325247        9.3538953775        9.8015382129
  C         1.1246876095       11.0925211284       10.9409549527
  H         0.6370601097       11.6850717780        5.9514053881
  H        -0.3010859774       10.9188326707        7.0896556096
  C        -0.5313752091       10.1863586863        5.1729068721
  C         4.1422371605       14.3537316829        4.2720763735
  C         1.2507922668       12.4510851525       11.0926923349
  H         1.9331486886       14.2009487555        9.9932565071
  C         0.7070846810       10.5790709081       12.1487555076
  H        -1.3938953948       10.8822486010        5.0081084148
  H        -1.1188611494        9.3095921212        5.4995406101
  C         0.1109173569       10.1896534059        3.7852538604
  C         4.0659138144       15.7670326808        4.0167856862
  C         4.6425991343       13.5325075338        3.1115878880
  C         0.6862410209       13.0575579126       12.3297851854
  C         0.3246674465       11.6497102057       12.9658226847
  S         0.6032679695        9.0496723657       12.9473333425
  H         1.0581917473        9.6394966088        3.6284352490
  H         0.3401088677       11.2393948082        3.6361237291
  C        -0.8733088983        9.7890483613        2.6830335647
  N         3.6332996425       16.7401421373        4.9361061243
  C         4.4173531998       16.3340426820        2.7577962600
  C         5.0487899255       14.0932904984        1.9207254530
  H         4.8753276399       12.4753169341        3.3040607365
  C        -0.5112716629       13.9961912307       12.1002719515
  C         1.7979743393       13.7198396899       13.0938820719
  C        -0.1721879317       11.2562948958       14.2698649979
  C        -0.0900253550        9.8471415709       14.3865057408
  H        -0.7746080881        8.7274139314        2.5692886191
  H        -1.8638909926       10.0052578117        2.8999484877
  C        -0.5114457019       10.5428984285        1.4771316751
  S         3.5341691354       18.1467470523        4.1685308923
  N         4.1484492402       17.6675646393        2.6899817109
  C         4.8753658769       15.5646076321        1.7023081556
  H         5.4368054501       13.4481694607        1.0553813971
  H        -0.1845540826       14.5761076459       11.2457822863
  H        -0.5335502140       14.7228932153       12.8863572202
  C        -1.8193710973       13.3807408457       11.8321330850
  H         2.1424281335       14.6056720649       12.5481164612
  H         1.3691292751       13.9350971902       14.0592451232
  C         3.0923959707       12.9207744240       13.3861118691
  H        -0.3844278154       11.9717864397       15.0956555384
  C        -0.2813958754        9.1028185901       15.6756853856
  H         0.5304786271       10.2895663272        1.2528042480
  H        -0.6048706486       11.5772638026        1.6893008850
  C        -1.3613425884       10.0720055338        0.2686814129
  C         5.1407079812       16.2735606166        0.4571455724
  H        -1.7081516865       12.7384471541       10.9350610384
  H        -2.0542492778       12.7569905509       12.7529039026
  C        -2.9583221604       14.4100949946       11.5892126296
  H         3.6974867772       12.8019896711       12.4839310501
  H         2.9558670737       11.9892016609       13.8905330353
  C         3.9539214623       13.7318374812       14.2635269238
  C        -0.1921792093        7.7024179290       15.8462300243
  C        -0.4027837075        9.9038793787       16.9297918682
  H        -1.6230517947        8.9806514951        0.3048516368
  H        -2.3074080728       10.6311767453        0.2694914080
  C        -0.8413993442       10.3555736651       -1.1519521820
  H         4.9986642906       17.2999260035        0.4867091575
  C         5.4121433169       15.8372182209       -0.8362878208
  H        -2.6283415387       15.1159056136       10.7661255013
  H        -3.0859790927       15.0105676054       12.5435250245
  C        -4.3260874353       13.9298772735       11.0992148880
  H         4.1730165676       14.6003310829       13.7175846788
  H         3.3738275984       14.1941453787       15.1343505462
  C         5.1714819531       13.0009994948       14.6899577941
  N         0.1698430806        6.8176742331       14.8188376111
  C        -0.3492698212        7.0565239842       17.0849098530
  C        -0.6269917704        9.2471666278       18.1813062968
  H        -0.5632401269       10.9569514303       16.8957615717
  H        -1.6129277844       10.8557019067       -1.7676849545
  H        -0.5319710568        9.4407314847       -1.6374081224
  H         0.0871555683       10.9737737728       -1.2045641546
  S         5.6330974670       14.1835541653       -1.3826727553
  C         5.4949949956       16.8210368935       -1.9102067155
  H        -4.9045774912       13.3424602811       11.8118440874
  H        -4.9008501813       14.8309774900       10.9576705850
  C        -4.3554146702       13.4150969074        9.6912774901
  H         5.7240851867       12.6975569027       13.7854321442
  H         4.9205347412       12.0503515213       15.1282334634
  C         5.9250654148       13.8489292535       15.6596743112
  S         0.3108996496        5.3025013803       15.4810192319
  N        -0.1361290111        5.6611072875       16.9745198800
  C        -0.6797633113        7.7501481717       18.2055103005
  H        -0.9271807784        9.8413834967       19.0797514321
  C         5.8785030521       14.8409104402       -2.9562193825
  N         5.8734716688       16.1706354351       -3.0121776449
  O         5.3589842312       18.0232540968       -1.8222882839
  H        -3.9095998305       13.9853590524        8.8776457430
  H        -3.7013415024       12.5633523912        9.6186222709
  C        -5.7399403444       12.7792098399        9.4058877114
  H         5.2797904549       14.5347889637       16.2238784426
  H         6.4512841878       13.2480496572       16.4079640368
  C         6.9321351052       14.7104566276       14.9881603491
  C        -0.9228333679        7.0745118692       19.4577177005
  S         6.4668752754       13.8951199921       -4.3424514030
  C         6.1293805928       16.8580967113       -4.2579606210
  H        -5.4755490075       11.9936280703        8.6516076838
  H        -6.1040468559       12.2814504805       10.2759675893
  C        -6.7501852448       13.8124440036        8.8785916257
  H         6.5488064453       14.8298866463       13.9805063749
  H         7.8673957655       14.2321348466       14.9450905161
  C         7.1740718989       16.0832712178       15.6760817009
  H        -0.7564164570        6.0770322997       19.3162484000
  C        -1.4506629678        7.4126560700       20.6721887764
  H         6.9595684418       16.5520645155       -4.9016436974
  H         6.3261646029       17.8901343201       -4.0225872149
  C         4.8463730189       16.8667576472       -5.1042700816
  H        -7.2040130205       13.5282747606        7.8953463307
  H        -6.2341926757       14.7064994860        8.6438302549
  C        -7.8413482406       14.0440079310        9.8965863314
  H         6.1575535360       16.4884969391       15.7076700421
  H         7.5806624197       16.1110710828       16.6675849429
  C         8.0830270178       16.9776838858       14.8301609689
  S        -2.0550132890        8.9580557093       21.0653094606
  C        -1.7015453243        6.3724936665       21.6951364072
  H         4.7894235917       16.0886514914       -5.8950588303
  H         4.7332323105       17.8765089463       -5.5243204869
  H         4.0233265436       16.4813561548       -4.5003229563
  H        -8.7399340143       14.4722037230        9.4999439317
  H        -8.0719325778       13.0460407863       10.2902203247
  H        -7.6151003550       14.6552662921       10.7526155660
  H         7.8789131153       16.8737129229       13.7548381347
  H         7.9950760929       18.1008758018       15.0097565976
  H         9.1200438985       16.6953627127       15.0307302232
  C        -2.2258557942        8.2738175641       22.6782784234
  N        -2.0847504372        6.9419028187       22.8453709583
  O        -1.3098931580        5.2161727142       21.4934464668
  S        -2.6394734462        9.1819849199       24.1377812026
  C        -2.0746343219        6.2159828561       24.0952350237
  H        -2.2188230363        5.1403774989       23.8494973658
  H        -2.8484130230        6.6277929284       24.7803391221
  C        -0.7483774677        6.2292087848       24.8657737898
  H        -0.2335919320        5.2942671240       25.1871263973
  H        -0.7798394709        6.7470759330       25.7864437031
  H         0.0564432423        6.7922836671       24.3116781147
