352
i =
  H        -3.3061857546       14.6586451159       16.2964373306
  C        -2.9678632620       13.6261470246       16.2492202696
  H        -3.9420421444       13.1505921271       16.6106708208
  C        -1.9020176447       13.2837171659       17.3065280794
  C        -2.6029006711       13.1697819495       14.8553108613
  C        -2.5725067658       13.5065199883       18.7216130077
  H        -1.8711589586       12.1703073838       17.1928324604
  H        -0.8998410829       13.7661468743       17.0566119219
  H        -2.0208327353       13.7891618746       14.2266057211
  H        -2.0441840514       12.2997156437       14.9315298527
  H        -3.4887973841       12.8500122810       14.2824244976
  C        -1.5341734467       13.4665361514       19.8584583800
  H        -3.3937445944       12.8370510546       18.8281869910
  H        -3.0368163418       14.4719746669       18.7814394422
  C        -2.1320738734       13.3874670816       21.3063091727
  H        -0.8563301998       12.5902097513       19.8129728746
  H        -0.9048853870       14.3216003163       19.6792725485
  C        -1.0992333735       12.9946559498       22.4869590259
  H        -2.9845953220       12.7206650559       21.4208706084
  H        -2.5786863337       14.3814202155       21.5290678421
  C         0.2427393461       13.8336768170       22.4603149459
  H        -1.5953127248       13.1022264090       23.4923455760
  H        -0.9116576459       11.9220138147       22.4272857567
  C         1.3751466103       13.2097429305       23.3673061721
  H         0.7273073864       13.9615153951       21.4402576198
  H         0.0005948523       14.7779620124       22.9420065006
  C         1.7600622235       11.8808061728       22.7265718342
  C         0.8337789701       12.4888807199       24.5360721300
  C         2.6266896814       14.0992426099       23.6025844358
  C         1.3567937704       10.7237287614       23.3757383914
  C         2.3930044399       11.5309022577       21.5182363053
  C         0.8677534437       11.1439183125       24.5814702303
  C         0.2997842788       13.0889575343       25.6549148577
  H         2.7353131282       14.6526863625       22.6685479050
  H         2.4100650314       14.7704596910       24.3845158945
  C         3.9536371770       13.3835432519       24.0291732606
  S         1.7213098281        9.2227397963       22.6166310295
  C         2.3231774840       10.1378255020       21.2627787635
  H         2.7040817164       12.3206481390       20.8619120264
  C         0.4367296405       10.4272611690       25.6626357597
  H         0.5014322187       14.1495704661       25.7756242851
  C        -0.1148945545       12.3865419423       26.7659829927
  H         4.1983078097       12.5806441988       23.3876668133
  H         3.6822519211       12.8279357645       24.9281959726
  C         5.1971221095       14.3082141220       24.0965311939
  C         2.7013111419        9.5009645106       20.0210644189
  C        -0.0596103795       11.0156848710       26.8276007617
  H         0.4607551613        9.3401794234       25.6888708416
  C        -0.5598956986       12.7307522444       28.0515176792
  H         5.9595523587       13.8440566085       24.6577698050
  H         4.9610530378       15.1377229273       24.7466902832
  C         5.6841993454       14.7007607936       22.7039907929
  C         2.7352566567        8.1082159026       19.7399279311
  C         3.0427235370       10.3564775322       18.8628014200
  C        -0.5278956268       10.3096176273       28.1289769584
  C        -0.6864417778       11.6419817381       28.8581622998
  S        -0.8424984054       14.2030691743       28.8243836277
  H         5.8976338411       15.8354248998       22.7251593865
  H         4.8127152480       14.5977059287       22.1056996278
  C         6.9923200766       14.0575747796       22.2199276981
  N         2.6042627716        7.0271223420       20.6634423969
  C         2.9447114808        7.5670845532       18.4304367702
  C         3.3007127939        9.8021166133       17.6036341908
  H         3.3072240162       11.4187779900       18.9223559551
  C         0.6039558679        9.5538959093       28.8024840692
  C        -1.8623181782        9.5379453094       27.9485748654
  C        -1.1086904904       12.0298531723       30.1952499954
  C        -1.1367892245       13.3661398237       30.3391717128
  H         7.8231641710       14.8067352591       22.2257424535
  H         7.2098001965       13.2697379149       22.8979710436
  C         6.7786761259       13.2541604255       20.9569175699
  S         2.5350470692        5.6507120084       19.8516999087
  N         2.9245678548        6.2008753854       18.3623156293
  C         3.2337298822        8.3864788361       17.2971079466
  H         3.4862078806       10.5213392694       16.8200605802
  H         0.6232678195        8.5013380634       28.4426898074
  H         0.3551887179        9.4206099741       29.8647662512
  C         2.0438686288       10.1720883808       28.6389189607
  H        -1.6640381556        8.6532649659       27.3270331973
  H        -1.9948225140        9.1194264340       28.9694568949
  C        -3.0765832438       10.3805344945       27.4484412812
  H        -1.1411890829       11.2683985264       30.9786154663
  C        -1.4483300027       14.1261833118       31.5350194986
  H         5.8229404725       13.4982468845       20.4127769982
  H         6.6498763219       12.2219081608       21.2490191151
  C         7.8349582215       13.2027000692       19.8909030889
  C         3.4897996003        7.7159351666       16.0308349095
  H         2.5050477915        9.6452073573       27.8105238096
  H         2.1568745553       11.2573668794       28.4590015613
  C         2.8327985910        9.9518517662       29.9909779619
  H        -2.8219755448       10.9312872668       26.5247309526
  H        -3.2773857344       11.1061086732       28.1615223588
  C        -4.3348764414        9.5030584558       27.1958091300
  C        -1.4974253794       15.5196419161       31.6811942478
  C        -1.4966814306       13.3743906000       32.8309994621
  H         8.7135752610       13.6855492281       20.1680627740
  H         8.1462251329       12.2292426950       19.7294206440
  C         7.4556416683       13.9233544599       18.6030758233
  H         3.3422954690        6.6103999342       16.0575403590
  C         3.8112732293        8.2110429726       14.8198513433
  H         2.5392613303        8.9670649421       30.3950468182
  H         2.4385791036       10.6952505175       30.7250761650
  C         4.3080491934        9.9786418821       29.6734548513
  H        -4.1040792725        8.7436912190       26.4431865925
  H        -4.5197258760        8.9531606671       28.1325312117
  C        -5.5997261179       10.3494838430       26.8333419143
  N        -1.1555257315       16.4601694319       30.7183080282
  C        -1.7721904792       16.1788342045       32.8942561215
  C        -1.7558112759       14.0117089092       34.0482502463
  H        -1.2875893819       12.3314723592       32.7998507724
  H         6.8081332000       13.2293988081       18.0145504208
  H         6.8138112132       14.7740861334       18.7619107078
  H         8.3062206309       14.3523257626       18.0661026588
  S         4.0544400970        9.8232788114       14.3576636011
  C         3.9797242157        7.1298880733       13.7741899218
  H         4.3705143019       10.5413076511       28.7577357986
  H         4.8780888337       10.5390980890       30.3417942473
  C         4.9320124476        8.5472284063       29.3940459990
  H        -5.2419258039       11.2145339968       26.2755415909
  H        -6.0322502118       10.6076436778       27.7774580942
  C        -6.7175605306        9.6909215251       26.0278581514
  S        -1.3409156207       18.0097907083       31.2940463443
  N        -1.7712533075       17.5784903474       32.7544333780
  C        -2.0508351651       15.4553131655       34.0616447279
  H        -1.8753420682       13.3454435957       34.8332662584
  C         4.4008593276        9.0442424854       12.7566703995
  N         4.4211956952        7.7172365584       12.6340242696
  O         3.5887494446        5.9965040249       13.8896498399
  H         5.8322926782        8.7479428184       28.8492503906
  H         4.2711390325        7.9880888977       28.7383849191
  C         5.2373464514        7.8542660790       30.6568478755
  H        -6.3214121512        9.1326214277       25.2361667589
  H        -7.2907531513        8.9646933604       26.6243137827
  C        -7.8370261024       10.6903392213       25.6217983264
  C        -2.4179666525       16.1580105832       35.1780202151
  S         4.6406385916        9.9685053969       11.2161552129
  C         4.5796098278        6.9665898591       11.3164014369
  H         5.3319019418        8.5656561867       31.4885790842
  H         4.4387902055        7.1993722788       30.8035471257
  C         6.4476931838        6.9957275567       30.6447039577
  H        -7.4755494016       11.1143212770       24.7580450046
  H        -7.9574879972       11.5603572159       26.2577497158
  C        -9.2594008375       10.0484387164       25.5059396908
  H        -1.9153699435       17.0834062264       35.2352200972
  C        -2.9933475654       15.7684990695       36.3395567952
  H         5.3117451346        7.4818979196       10.7048413212
  H         4.9052225109        5.9319401218       11.5243892467
  C         3.2828247183        6.8365823147       10.5447994688
  H         7.3087971460        7.4443017481       31.0616512606
  H         6.6207667310        6.6664586824       29.6912234089
  C         6.2246116320        5.7873640443       31.4795302386
  H        -9.8556100595       10.3512447166       24.6373944536
  H        -9.1104691412        9.0295501787       25.2704114803
  C       -10.1147977313       10.0391889580       26.7931767485
  S        -3.6962594428       14.2294714297       36.5925746844
  C        -3.0553955997       16.7025781171       37.4713004375
  H         3.2282826265        7.5937018883        9.7619268250
  H         3.1732037302        5.8735534205       10.0435692461
  H         2.3747996402        6.9994818084       11.1204026646
  H         6.9402740739        5.0879687757       31.2266488206
  H         5.2713526673        5.3113714025       31.5202899852
  H         6.4652283764        6.1110561376       32.5090022038
  H       -10.3362114015       11.0056042952       27.1956572696
  H        -9.5860595142        9.4264663583       27.5340004307
  H       -11.1062943397        9.5797523626       26.5688123745
  C        -4.0026977939       14.7978927073       38.2247391065
  N        -3.7257769607       16.1188733181       38.4296590632
  O        -2.6111632199       17.8472611910       37.4450820952
  S        -4.8622995482       13.9049637756       39.5247105270
  C        -3.9440984576       16.8527085957       39.6533429398
  H        -4.0082354112       17.9370561692       39.4458672240
  H        -4.8639353372       16.5839357844       40.1301927534
  C        -2.7791226278       16.7501739494       40.6481194422
  H        -2.9821689506       17.3465857987       41.5468593780
  H        -2.5574901424       15.7401678694       40.9825813360
  H        -1.8718718690       17.2023984279       40.2573513611
  H         7.4670767238       11.5299006342        3.3344483419
  C         7.8033805173       10.5229457432        3.6209607374
  H         6.8597297168        9.9687595449        3.5598004281
  C         8.5206679934       10.4959354902        5.0110495471
  C         8.7427300633       10.1438325715        2.4999941645
  C         7.5528067504       10.8918935910        6.1135566950
  H         8.8723278028        9.4545157405        5.1180938192
  H         9.4105131441       11.1480368407        5.0119988696
  H         9.7554207193       10.0480629539        2.9301929024
  H         8.6850469082       10.8617372843        1.7410661907
  H         8.4577980815        9.1228807662        2.1830551500
  C         7.1043706437        9.6822455444        6.9566990063
  H         7.9384025714       11.7146087483        6.7399796928
  H         6.6236755561       11.2986255699        5.6462034140
  C         6.2408808699        9.9826899427        8.1095007791
  H         7.9802591190        9.2192594093        7.2930418644
  H         6.5623702068        8.9036229993        6.3334258556
  C         5.0230203943       10.7320781350        7.6970685072
  H         6.7616393635       10.7129396577        8.7793023494
  H         5.9901900782        9.0783270136        8.6600832492
  C         4.0176876447        9.8622555029        6.9014608296
  H         4.4859740757       11.0107666391        8.6899599054
  H         5.3168000829       11.7291542425        7.2578206055
  C         2.6863601999       10.6993570821        6.5900692738
  H         3.8954454398        8.9583746454        7.3863459358
  H         4.3832727573        9.6126201107        5.9341531384
  C         3.1096389267       12.0470995545        5.9885778017
  C         2.1715412508       11.4775341727        7.8019643978
  C         1.6582594714        9.9401846927        5.7105863291
  C         2.9058765826       13.1187842950        6.8055223075
  C         3.6962605561       12.4397996132        4.7998469109
  C         2.2764203294       12.7852962681        7.9780024453
  C         1.8085279586       10.8071459682        8.9131836661
  H         2.0742321520        9.6681038876        4.7657927641
  H         1.3768484753        9.0247132140        6.2413252455
  C         0.3626746175       10.7849025485        5.3887778444
  S         3.4137798898       14.6422241051        6.1370471107
  C         3.9319799275       13.7758846190        4.7484794269
  H         3.8094136007       11.7662805614        3.9375033540
  C         1.9573720516       13.3703488429        9.1372501187
  H         1.6773477171        9.7450318970        8.8583621048
  C         1.5257548406       11.4074304419       10.1134190084
  H         0.7653870514       11.7243455995        5.0255140455
  H        -0.2496574188       11.0748415092        6.2566288248
  C        -0.5494916817       10.0610354427        4.4368897532
  C         4.5095113531       14.3802008406        3.5109009659
  C         1.5527073854       12.7343444056       10.3237554643
  H         2.1391949845       14.4228305202        9.1594917010
  C         1.1741997048       10.9704832596       11.3702941231
  H        -1.4488339201       10.6783552170        4.5146983601
  H        -0.8283279284        9.1122891889        4.8277012818
  C        -0.0975935783        9.9702552531        2.9411203077
  C         4.5335647179       15.7852079242        3.2663012383
  C         5.1393029285       13.5440373823        2.4333248915
  C         1.1853761414       13.3575420509       11.5844427502
  C         0.9420995220       12.0083160242       12.2421354373
  S         0.9628965709        9.4588405101       12.1014803685
  H         0.8727600623        9.4957141303        2.9057482523
  H         0.1298047215       11.0216711373        2.6594958670
  C        -1.2463898457        9.4576928152        2.0516213058
  N         4.1779325917       16.7717352624        4.1490843453
  C         4.8256356339       16.2922654856        2.0360408940
  C         5.3305115985       14.0219520066        1.1414458132
  H         5.3785211242       12.5404166362        2.7755811610
  C        -0.2011926472       14.1704993201       11.4922633962
  C         2.4602817140       14.0483213392       12.1890802684
  C         0.4036318991       11.6001631291       13.5099271521
  C         0.6141483496       10.2437823463       13.6640025428
  H        -1.8201967767        8.7247843590        2.5350965919
  H        -1.8724015476       10.2965568791        1.8206360932
  C        -0.7273189612        8.9148008747        0.7760819272
  S         4.2871516963       18.2248319831        3.4650547097
  N         4.6336166954       17.6741951442        1.9802277849
  C         5.1686645305       15.5028539483        0.9009057016
  H         5.7276377983       13.3572213580        0.3540124095
  H        -0.0788512597       15.0721905032       10.8750807155
  H        -0.5414605628       14.4834030274       12.4726488960
  C        -1.3605764420       13.3180778748       10.8381530222
  H         3.4026608094       13.8457783538       11.6216454645
  H         2.3317501588       15.1265186445       12.0021839076
  C         2.6875233678       13.8280820856       13.7355836819
  H         0.1529275716       12.3792688810       14.2225326879
  C         0.2220209110        9.6110487485       14.9241513706
  H        -1.5336594401        8.2570335406        0.3566238453
  H         0.0557101013        8.1816746567        0.9822917909
  C        -0.1941870309        9.8874458628       -0.2601238984
  C         5.2472045810       16.1694145394       -0.3547386512
  H        -1.0827856157       12.9721833248        9.8437402362
  H        -1.4247541482       12.3534522722       11.3546286381
  C        -2.6764239527       14.0014017637       10.7050666484
  H         2.6357918678       12.7503837632       13.9712070821
  H         1.8826866820       14.3116208519       14.3113554212
  C         3.9871698808       14.3335817853       14.4424371421
  C         0.0762802546        8.2257636054       15.0701580577
  C         0.2019990995       10.3889169237       16.1721329489
  H         0.2342784227       10.7853160284        0.0989800319
  H         0.6582558947        9.4462434861       -0.8004758502
  C        -1.2335587512       10.3563821280       -1.2688850388
  H         5.2233866725       17.2451407911       -0.3273549627
  C         5.5490326430       15.8008634192       -1.6538692766
  H        -2.6845295964       15.0517763410       10.3189864180
  H        -3.0406790474       13.9657942066       11.6993171477
  C        -3.6101169106       13.2315044712        9.7640655327
  H         4.1727980586       15.3940170542       14.3263682535
  H         3.7819741842       14.1858220778       15.4997336951
  C         5.2080113099       13.5975471391       14.0694131579
  N         0.3316365656        7.2445469656       14.1084943627
  C        -0.0364714667        7.6878418080       16.4002468827
  C         0.0677012403        9.8490394361       17.4525446658
  H         0.1423059927       11.4764135144       16.1406982458
  H        -2.0833613563       10.7022977448       -0.6062743204
  H        -1.5274502884        9.6667824461       -2.0906987414
  H        -0.7855311779       11.1867502202       -1.8105548978
  S         5.8533387620       14.2165794593       -2.1533263935
  C         5.5509832762       16.8268994621       -2.6760368390
  H        -3.3906757174       13.2888020908        8.6696147871
  H        -3.4821720057       12.1701231678       10.0695835047
  C        -5.1123250258       13.6386000894        9.9129435581
  H         5.2005219562       12.9672633177       13.2394494438
  H         5.4995887898       12.9933672783       14.8530460904
  C         6.3242825640       14.4983183442       13.8009074523
  S         0.2664290248        5.8070673245       14.8383556775
  N        -0.1454134224        6.3265197571       16.2894338194
  C        -0.0810474336        8.4335104130       17.6097202066
  H        -0.2209437680       10.5496826416       18.2181007991
  C         6.0629869206       14.8992992751       -3.7079016012
  N         5.9725756403       16.2526522527       -3.7766911318
  O         5.4265812926       18.0288456039       -2.4744839221
  H        -5.3493778122       13.4594479530       10.9813509051
  H        -5.2363376998       14.7177340925        9.7692279872
  C        -6.0170129271       12.9036897960        8.8692407205
  H         7.2219771165       13.9464856920       13.4423205285
  H         5.9230797959       15.1345111625       13.0079508711
  C         6.7767986637       15.3436889785       15.0197884595
  C        -0.3803238405        7.7282489182       18.7750453025
  S         6.5283121222       13.9429649872       -5.1542932625
  C         5.8749467768       17.0172100259       -4.9744482049
  H        -5.6217156265       12.8148185775        7.8859115445
  H        -6.2618653588       11.9469372699        9.1943683053
  C        -7.3531255337       13.6879436477        8.7318635883
  H         6.6244499191       14.8997304031       15.9775334036
  H         6.1535918845       16.2678827402       15.0187114513
  C         8.2353530933       15.8192069052       14.8519517739
  H        -0.2337732564        6.6709063558       18.7521896113
  C        -0.8150932758        8.1203046029       19.9842969115
  H         6.4307434360       16.5949392716       -5.7137996055
  H         6.2558910549       17.9764059322       -4.7767445731
  C         4.4618245276       17.0804572840       -5.5532426163
  H        -7.7314560050       13.3049252615        7.8010997448
  H        -7.1152667710       14.7607644468        8.4927205359
  C        -8.3124514612       13.5831467160        9.8310935273
  H         8.5411089347       16.2031769181       15.8615816847
  H         8.8669490025       15.0525185335       14.4593056406
  C         8.1860194743       17.0649648798       13.8992022057
  S        -1.4347181524        9.6795033255       20.2951652405
  C        -0.9561632233        7.1188915644       21.0273836639
  H         4.4763930858       16.9331300946       -6.6531331685
  H         4.0449646758       17.9513139198       -5.3257340661
  H         3.8957479629       16.2684477814       -5.1630768794
  H        -9.2171184988       14.1166291666        9.5595549919
  H        -8.4631146487       12.5671214661       10.0778950296
  H        -7.8915871610       14.0696596533       10.6914228849
  H         7.4137542633       17.7245527463       14.3004709244
  H         9.1284241680       17.5838177389       14.0327769031
  H         7.9600761417       16.7778099550       12.8870732925
  C        -1.9697233611        8.9700875149       21.8428180916
  N        -1.6875279519        7.6387240249       21.9986715380
  O        -0.4567208594        5.9475881720       21.0084084183
  S        -2.7644557260        9.7556355629       23.2011857327
  C        -1.9759165605        6.9187966712       23.2457010376
  H        -2.1942363677        5.8812873529       22.9738072962
  H        -2.9153802704        7.2551781036       23.6753849239
  C        -0.8277173014        6.9861505250       24.3075665278
  H        -0.8103826972        6.1556812351       24.9430020447
  H        -1.0078531027        7.8812430340       24.9779551410
  H         0.1548933698        7.0827064265       23.9096864989
