352
i =
  H        -3.9915857030       15.2375643166       16.5705406376
  C        -3.4701142471       14.2383991088       16.5067354884
  H        -4.2782566250       13.5123835255       16.6862941776
  C        -2.4488410556       14.0069476359       17.6475087517
  C        -2.8737475524       14.1149053565       15.1226804407
  C        -2.9913257482       13.5395363812       18.9478130070
  H        -1.7981747545       13.2200282649       17.4840613077
  H        -1.8019696546       14.9182468603       17.7767768622
  H        -3.6000732782       14.4409167756       14.4257065827
  H        -2.0320478850       14.7187994516       14.7489186189
  H        -2.7997753459       13.0577510343       14.8781810851
  C        -1.9147366540       13.6582768794       20.0224337719
  H        -3.4118844198       12.6082962531       18.7907175677
  H        -3.8187868129       14.2335037180       19.1928327265
  C        -2.4518580454       13.7491268634       21.4047439566
  H        -1.2687344016       12.8187202470       19.8169853539
  H        -1.4221690235       14.6331683171       19.7663001656
  C        -1.5365545887       13.1344949256       22.4962026553
  H        -3.3626849781       13.1279747360       21.3509006321
  H        -2.9078670122       14.6784331111       21.5998247667
  C        -0.2702998444       13.9643182219       22.6645250254
  H        -2.2044104199       12.9974154443       23.3419310682
  H        -1.2866883323       12.1442906100       22.1763397011
  C         0.9253116065       13.2513038119       23.3187065578
  H         0.0849851560       14.2227865217       21.6427226147
  H        -0.4441611037       14.9342385083       23.0678801572
  C         1.1584908653       11.9500387340       22.6096131488
  C         0.5337826273       12.4582703246       24.5389983864
  C         2.1036204269       14.1596195245       23.3806006115
  C         0.9066404710       10.8089289538       23.3531570516
  C         1.6277899960       11.6110267875       21.3009633867
  C         0.4982373787       11.1531587547       24.6465995337
  C         0.1918759975       13.1048213099       25.7710324285
  H         2.2022673437       14.3630113465       22.3128940482
  H         1.7519489401       15.0608331462       23.8674304659
  C         3.4580866281       13.5179874549       23.8966493092
  S         1.1943616121        9.3460843289       22.5872678406
  C         1.7675415583       10.2611253129       21.2070648453
  H         1.8938299103       12.3821294246       20.6327678393
  C         0.2096261524       10.4899092578       25.8569733763
  H         0.0059659826       14.1531814875       25.7211821677
  C        -0.2367582331       12.4135106367       26.9071046226
  H         3.6287351386       12.5103840469       23.4761531587
  H         3.3136064688       13.4791933872       25.0051302012
  C         4.6687861097       14.2878466826       23.4727898177
  C         2.2889417061        9.5563466187       19.9664458647
  C        -0.2203371744       11.0762859247       26.9961875645
  H         0.3522876531        9.4861034788       25.8202946725
  C        -0.5870664807       12.8861190537       28.1557493075
  H         5.4843130187       13.7845735080       24.0561325104
  H         4.6861870405       15.2360491090       23.9263004519
  C         5.1419063662       14.3182005804       21.9754702704
  C         2.3261366112        8.1777814996       19.6904332953
  C         2.4986863909       10.3882353866       18.7616331471
  C        -0.5860258573       10.4657754096       28.2850315046
  C        -0.8583247644       11.8295828245       28.9969447917
  S        -0.6842062971       14.4464487770       28.9218873521
  H         6.1187267058       14.9263331938       21.9045261570
  H         4.4500947965       14.8247183623       21.3748030349
  C         5.4639994923       12.8979665350       21.4872953324
  N         1.8794794721        7.2187483340       20.5936907819
  C         2.7295384686        7.5425743514       18.4671382330
  C         2.9766674082        9.8488399764       17.5888557643
  H         2.4981106980       11.4917713226       18.9761023481
  C         0.6579935444        9.7714072574       28.8132935115
  C        -1.8473915822        9.6154660165       28.2464757019
  C        -1.1452980932       12.2237923575       30.3052893394
  C        -1.2609655502       13.6321291783       30.3367461647
  H         6.1473447419       12.3140912985       22.1805863690
  H         4.6776142096       12.2394978497       21.7704368040
  C         5.7275552794       12.7929683610       19.9668409774
  S         2.0155150680        5.7109355032       19.8627312330
  N         2.5680806377        6.1740938806       18.4524826185
  C         3.0598871780        8.3808655264       17.3391908371
  H         3.2535435407       10.5610994126       16.8659458126
  H         1.1596490205        9.5304391115       27.9496376554
  H         0.5164828816        8.8203264150       29.3412583478
  C         1.6889406071       10.5920035599       29.5871644096
  H        -1.6102704218        8.8357877360       27.5636428696
  H        -2.0478869429        9.0539453635       29.1743297901
  C        -2.9526159040       10.4029578420       27.5982074620
  H        -1.3448514930       11.4521863066       31.0916769991
  C        -1.7334142458       14.4382978526       31.5602407270
  H         5.1950927760       13.5150007623       19.3835294026
  H         5.4662862497       11.7898515130       19.8367821323
  C         7.1551747203       13.1006467990       19.7081481988
  C         3.3323656555        7.7174618582       16.1117147026
  H         1.9247126604       11.5073002858       29.0106620223
  H         1.1731784546       10.9015771168       30.5109435664
  C         2.8277490591        9.7495215264       30.0073505930
  H        -2.8041881506       10.8335807380       26.5799021497
  H        -3.2037629719       11.2238190566       28.3277610917
  C        -4.1492637232        9.5417724438       27.4622654536
  C        -1.6746446987       15.8384174921       31.6655294414
  C        -2.0059209524       13.7206460268       32.8449713400
  H         7.3985631461       14.0274787462       20.2292409888
  H         7.7493870434       12.3453503192       20.1445783077
  C         7.3044518152       13.1723880007       18.1523476754
  H         3.3406621005        6.6526946560       16.0914367149
  C         3.5143154840        8.2072104058       14.8329838342
  H         3.0911987483        9.1893507334       29.1582021751
  H         2.5479134736        8.9309028410       30.7555372997
  C         3.9526789223       10.6627027871       30.3408953355
  H        -4.0560951081        8.9915200090       26.5983894335
  H        -4.4918022539        8.8849633599       28.2488884951
  C        -5.2481072780       10.5328724703       27.1983149414
  N        -1.3236580250       16.7771610734       30.6032434776
  C        -1.9151615172       16.5495935211       32.8631752671
  C        -2.1376181261       14.3839921294       34.0477657236
  H        -1.9901553450       12.6677852833       32.8790881094
  H         6.5678966163       12.4412541594       17.7774113527
  H         7.0515124285       14.2429649692       17.8823282135
  H         8.2925801981       12.8924436932       17.7196571876
  S         3.8855940239        9.7810922700       14.5178861078
  C         3.6602962507        7.2100977187       13.6653643641
  H         3.9143319677       11.6023859312       29.8146946126
  H         3.8217993707       10.9189735915       31.3698112878
  C         5.2851704545       10.0397621831       30.2404407844
  H        -4.8659008826       11.4678330581       26.8709419472
  H        -5.6929649814       10.7543092372       28.1445053990
  C        -6.3260438813       10.0309718069       26.1706349576
  S        -1.4054527405       18.3289888189       31.1881472011
  N        -1.9303438096       17.9173004106       32.7204738406
  C        -2.0999513292       15.8788882661       34.1138258364
  H        -2.3383665218       13.6748342284       34.8584577060
  C         4.1435676338        9.3204489943       12.8484120042
  N         4.0227907477        7.9959414400       12.6464273536
  O         3.4045232473        6.0078668105       13.7698143727
  H         5.9962352791       10.8275774346       30.4035451176
  H         5.4869559804        9.9281926841       29.1628116602
  C         5.4679355423        8.7692318278       31.1139483083
  H        -5.7675554124        9.6481584164       25.2978936692
  H        -6.9098038203        9.2328216752       26.7522397631
  C        -7.2797833978       11.2526365300       26.0171776000
  C        -2.4817690639       16.6807970400       35.2180446499
  S         4.6902250245       10.3165580689       11.4750260729
  C         4.0565128367        7.3471860885       11.3277742443
  H         6.0296504185        9.1857387680       31.9820524650
  H         4.4883468482        8.3254778122       31.2915423721
  C         6.4042042759        7.8569388248       30.3637929656
  H        -6.6551253756       12.0527585735       25.5706357939
  H        -7.7296985571       11.5343550809       26.9506224705
  C        -8.3234921544       10.7108599858       25.0002551818
  H        -2.2710457011       17.7447172876       35.2203028103
  C        -2.9266572772       16.3088206907       36.4689810380
  H         4.7180731954        7.8279390251       10.6408834245
  H         4.5468825511        6.3771279927       11.4508167349
  C         2.6862570212        7.0554625882       10.6680949375
  H         7.2710956625        8.4360560749       29.9621379244
  H         5.9674577557        7.3270348105       29.5259003454
  C         6.8427219963        6.6720857584       31.3924780821
  H        -8.4521889925       11.4916911471       24.2209280692
  H        -8.1262107066        9.7614867715       24.6249123160
  C        -9.6414106253       10.5468154458       25.6413723102
  S        -3.3649755915       14.7533640271       37.0222853653
  C        -2.9233519584       17.3725221204       37.4528228728
  H         2.3281028780        8.0002252585       10.2465828558
  H         2.8736271868        6.3511606465        9.9005857968
  H         1.8486809129        6.6979102506       11.2678691662
  H         6.9081106499        5.7286920491       30.7834157961
  H         6.1737145812        6.5472182863       32.2967025981
  H         7.7930712164        6.9483252473       31.7926824772
  H        -9.4392098754        9.9505125877       26.5122379969
  H       -10.4841007510       10.2413396992       25.0801787597
  H        -9.9620385541       11.5394718995       25.7958780417
  C        -3.5594647142       15.5207650596       38.5685677071
  N        -3.4804360075       16.8431927225       38.6172596924
  O        -2.7956454931       18.5491131013       37.2698429229
  S        -4.3962234064       14.6659841109       39.9087282064
  C        -3.7471543144       17.7756942157       39.7383025148
  H        -3.5619068841       18.7957136343       39.4617957366
  H        -4.7580893268       17.7414302743       40.1401903653
  C        -2.7562170014       17.5013795025       40.8751920267
  H        -2.6633348712       18.3208555236       41.4569770117
  H        -3.1581042216       16.6368701707       41.3635350835
  H        -1.8880244229       17.3242691704       40.2681832604
  H         8.0184109762       12.1782405103        4.1414977021
  C         7.7382408301       11.2060998162        3.8355808072
  H         6.6859483911       11.2444241367        3.6825620004
  C         8.2884678832       10.2523344503        5.0265952417
  C         8.4452839793       10.8793159985        2.6138019658
  C         7.4407251881       10.5329394133        6.2206807168
  H         8.2457608571        9.1663891539        4.8956342561
  H         9.3162420977       10.3909186930        5.1539605551
  H         8.7073974739        9.8620981736        2.6594254180
  H         9.2817140971       11.5073827976        2.3261596776
  H         7.7710458501       10.8784525214        1.8350495799
  C         6.9341709240        9.1787924484        6.8768655587
  H         7.9533129561       11.1388513176        7.0003554394
  H         6.6194210340       11.1160826289        5.7581316626
  C         6.0571418710        9.3872403376        8.0651308875
  H         7.7236605002        8.4780988053        7.2363979571
  H         6.3739320275        8.7183348026        6.1030375963
  C         5.0677483929       10.4893984339        7.8897708634
  H         6.8449901379        9.8069468050        8.7562143100
  H         5.6655197292        8.4002573536        8.2884267346
  C         3.9288377116        9.9439867175        6.9925909328
  H         4.7435052697       10.5438315122        9.0191415636
  H         5.5058467543       11.3557053592        7.4906045239
  C         2.7435875643       10.9312927836        6.8922742420
  H         3.5646206319        8.9647563386        7.4640284672
  H         4.2433988023        9.5490037671        6.0430487812
  C         3.2165817655       12.2536643879        6.2301756225
  C         2.3535314432       11.7218461322        8.1048681059
  C         1.5624228183       10.3269145801        6.0961254445
  C         3.0059586012       13.3762509789        6.9837519704
  C         3.8616512621       12.6632028890        5.0543976067
  C         2.4677901366       13.0418417773        8.1934202025
  C         1.8871697295       11.1659626211        9.2694429060
  H         2.0047882561        9.9146011895        5.2061795975
  H         1.2940629580        9.3989832640        6.6657545794
  C         0.4203656049       11.2798833412        5.8451030284
  S         3.4637356886       14.8931771050        6.3287466561
  C         3.8209523454       14.0479814800        4.8721305302
  H         3.9640731944       11.8558579084        4.2912687638
  C         2.1969181958       13.6834350877        9.3854528029
  H         1.6807728070       10.0893209221        9.2820197315
  C         1.6211987108       11.7557252829       10.4510509026
  H         0.8619087761       12.2535519588        5.5815615174
  H        -0.1447579935       11.5568393295        6.7232969475
  C        -0.5029532406       10.7879194557        4.8138970742
  C         4.1082381707       14.8173093388        3.5693623228
  C         1.7452487264       13.0869778500       10.5568352503
  H         2.1300213667       14.7517222513        9.4079930069
  C         1.1797829668       11.3208991676       11.6998589316
  H        -1.4594838283       11.2522643166        4.9306563838
  H        -0.6004006942        9.7012189286        4.8453928009
  C         0.0854840085       11.1598433260        3.4377723942
  C         4.0583710971       16.1932914323        3.3890158311
  C         4.7038187575       13.9324727903        2.4532352522
  C         1.3100192623       13.7584686089       11.8291661233
  C         1.0091623417       12.4220954146       12.4846532940
  S         0.8363265177        9.7733517978       12.4257230095
  H         1.1612052845       11.0329359001        3.3645289009
  H        -0.2144481057       12.1237340878        3.3494217280
  C        -0.5582329415       10.2629777746        2.3192233824
  N         3.5589893450       17.1094366240        4.4191024443
  C         4.3779564411       16.7889219624        2.1816241535
  C         4.9921297755       14.5303295906        1.2518307927
  H         4.9837065692       12.9434677250        2.6246761047
  C        -0.0997822791       14.4823232656       11.6687886781
  C         2.3794072522       14.5354748881       12.4608538707
  C         0.5042422052       11.9482178726       13.7037506064
  C         0.4273305261       10.5900317389       13.8656363942
  H        -0.3810595437        9.2156758248        2.4323778209
  H        -1.5972649277       10.3791399440        2.4917723589
  C        -0.3412983083       10.7330536548        0.8962049064
  S         3.7070817527       18.5967525321        3.6665364073
  N         4.1684787947       18.1296057242        2.1760364608
  C         4.8211755552       16.0378189910        1.0510875631
  H         5.3934755153       13.9181535869        0.3766478899
  H         0.0463188767       15.3050674987       10.9278753536
  H        -0.4145918460       14.9293201326       12.6124130010
  C        -1.2407327703       13.7245302310       11.1254775104
  H         2.8177392136       15.1616208509       11.7020801836
  H         1.9136310221       15.1470459603       13.2240225676
  C         3.4589167124       13.7111439584       13.1680021576
  H         0.3900077345       12.7568932783       14.3926887349
  C         0.0130338820        9.8187942235       15.1497440922
  H         0.7014742663       10.4485289909        0.7334729394
  H        -0.4087343201       11.8563587029        0.7475661005
  C        -1.2560050576       10.0647510019       -0.1083439304
  C         5.1050365988       16.7350738337       -0.1614695675
  H        -0.8092266801       13.1231132083       10.3779475444
  H        -1.6549911132       12.9359058117       11.7668275746
  C        -2.4470431949       14.5563301441       10.8257680712
  H         3.7712696774       12.9045769040       12.3897696947
  H         3.0700756866       13.2111383271       14.0463723255
  C         4.6529449186       14.4347581424       13.5676017327
  C        -0.0602009142        8.4096575749       15.3418138656
  C        -0.2512369070       10.6699532754       16.2513744539
  H        -0.9359476666        9.0253998147       -0.2764374532
  H        -2.2354984174       10.1417648318        0.3545525131
  C        -1.2263666539       10.8866193132       -1.4127234907
  H         5.3190247613       17.7746431476       -0.0128647824
  C         5.3035683407       16.3730313744       -1.4107299624
  H        -2.2528717029       15.4016451709       10.1732912620
  H        -2.7330240255       15.1943504678       11.6737898170
  C        -3.7067249037       13.6219066460       10.6098814925
  H         4.9947660605       15.1286849160       12.7728672522
  H         4.2885831056       15.1186595720       14.3486918840
  C         5.6270410180       13.5252381373       14.2260063532
  N         0.2468300811        7.4553141212       14.3704641311
  C        -0.3847183084        7.7897813223       16.5462073573
  C        -0.6447742224       10.0377246632       17.4636395350
  H        -0.2867169490       11.7714102938       16.1348705576
  H        -0.2988149755       11.2809126454       -1.7188063945
  H        -2.0181008026       11.6220768334       -1.4490588728
  H        -1.5263597552       10.1188846387       -2.0873051619
  S         5.6212745418       14.7562033741       -1.8836076122
  C         5.4629000846       17.4037814570       -2.4993070797
  H        -3.4557685630       12.7513179268        9.9936832725
  H        -4.1636745264       13.1967462142       11.5356358986
  C        -4.7795033627       14.3654751996        9.9106920543
  H         5.6795181374       12.5278136176       13.7453853185
  H         5.2366757396       13.2548506119       15.2133444942
  C         7.0216528383       14.2372613017       14.1945553669
  S        -0.0913832702        5.9609029899       14.9234901470
  N        -0.3723481276        6.4210657523       16.4527503009
  C        -0.7033403610        8.5701280824       17.6977261610
  H        -0.7705398643       10.6631143428       18.3045297863
  C         5.7428903195       15.4277337331       -3.5153724729
  N         5.9107443807       16.8011309074       -3.6448429585
  O         5.3790026796       18.5467979501       -2.2576626852
  H        -5.1988994258       15.0339017080       10.6782955539
  H        -4.3712727637       15.0143309333        9.1527054916
  C        -5.7143807701       13.2692339076        9.2278465151
  H         7.5556127633       13.4838639995       14.7273682334
  H         7.2224673131       14.4099425218       13.1095575545
  C         7.1857687227       15.5279597447       15.0754712196
  C        -0.9956532948        7.9288836491       18.9598908967
  S         6.3983792498       14.4580275851       -4.8152914505
  C         6.1319467320       17.5497218188       -4.8893864786
  H        -5.5254073845       13.3504504612        8.1765695742
  H        -5.6048808151       12.1982345703        9.4620720838
  C        -7.1745825861       13.6360871060        9.3119942720
  H         7.8170155030       15.2422264708       15.9223861532
  H         6.2639794721       15.8292879043       15.5349047302
  C         8.0015879334       16.5933518360       14.2944793088
  H        -0.8293520865        6.8841534572       18.9027198616
  C        -1.4709726672        8.3580414538       20.1627052567
  H         6.8182161515       16.9037207831       -5.5603359497
  H         6.5249062876       18.5263990516       -4.6966444954
  C         4.8305150907       17.5680357768       -5.7099934940
  H        -7.7271125375       13.0759897287        8.5333505581
  H        -7.2851040525       14.6853161639        9.1488378076
  C        -7.7037266133       13.4253039346       10.6892882345
  H         8.8100976595       16.1145498461       13.7314525488
  H         7.2227879271       17.1114516807       13.6896078736
  C         8.5561374811       17.7528761086       15.1462452960
  S        -1.9929532816        9.8881339181       20.5491673781
  C        -1.5452098128        7.3518153205       21.2434288440
  H         4.3922261614       18.5981415758       -5.7560943481
  H         3.9754543730       16.9069280749       -5.2911103818
  H         5.0005562304       17.1890195680       -6.7256550794
  H        -7.0094709437       13.7073883676       11.4097918838
  H        -8.5323633552       14.1645573159       10.5836595056
  H        -8.0926944204       12.3716412424       10.8277888414
  H         9.3092872420       18.3061519073       14.6753305113
  H         7.6908730786       18.4522815341       15.2181125762
  H         8.8743502661       17.5405757309       16.1281766834
  C        -2.4113705286        9.2424393979       22.1236069249
  N        -2.1084805530        7.9540082158       22.3264541377
  O        -1.2579939753        6.1697238738       21.1578518805
  S        -3.0749925993       10.1678674844       23.4564367874
  C        -2.3673764528        7.1061831064       23.4821843114
  H        -3.0122654518        6.3094131045       23.1082959951
  H        -3.0187853986        7.5413748610       24.2371227624
  C        -1.0822301288        6.5473226383       24.1375896050
  H        -0.2338427582        7.1209634190       23.7953372269
  H        -0.8144461853        5.4730231897       23.7896626526
  H        -1.1560834680        6.4334149154       25.1715787297
