352
i =
  H        -3.8228070324       14.5015818913       16.4319456625
  C        -3.2029836239       13.6442058235       16.1420335021
  H        -3.8975835918       12.8199266173       16.0942001413
  C        -2.2479723374       13.2109889198       17.3202826664
  C        -2.5419376927       13.6234735722       14.7574343012
  C        -2.7468229204       13.7699568359       18.5888618753
  H        -2.4068336411       12.1376177744       17.5307646262
  H        -1.1486418801       13.4153284003       17.1131893509
  H        -3.0459269113       14.3026185181       14.0954588095
  H        -1.5425842639       13.9768062371       14.8301493133
  H        -2.7136707171       12.5558777616       14.4077182134
  C        -1.7405625991       13.7395995490       19.7362705465
  H        -3.6389493449       13.1720041627       18.8029370032
  H        -3.1519036852       14.8188627772       18.6132440825
  C        -2.4550724739       13.3882576001       21.0350764177
  H        -0.9848334649       13.0241348845       19.4787986631
  H        -1.1898649802       14.6404194474       19.8581449921
  C        -1.3692443844       12.8188702614       22.0650221019
  H        -3.1362488641       12.5092940312       20.8517421199
  H        -3.0494484961       14.1336425614       21.3667188969
  C        -0.1940488921       13.7696569013       22.5394844902
  H        -1.9030741745       12.4190464789       22.9175837478
  H        -0.8324425437       11.9372165222       21.6225825285
  C         0.9240455882       13.0471074684       23.3857671797
  H         0.2840801527       14.3347947748       21.7606473227
  H        -0.6130751607       14.4490434889       23.1888080790
  C         1.2429168798       11.6756323277       22.7647966767
  C         0.3677367548       12.3081573808       24.6356454215
  C         2.2156568079       13.9191209783       23.5780033141
  C         0.8344500170       10.5929044394       23.4697346300
  C         1.8483600387       11.2932071710       21.5650755373
  C         0.3164564473       10.9917453842       24.7093131412
  C        -0.0366621979       12.9513627770       25.8135095111
  H         2.4469172541       14.6230038930       22.7964281069
  H         1.8451333877       14.5323326804       24.4384336648
  C         3.5031834624       13.2733986709       23.9704185249
  S         1.0099891062        9.0355641232       22.6166925326
  C         1.6952221849        9.9605775202       21.3258683513
  H         2.3253195054       12.0295190509       20.9220152065
  C        -0.1503735521       10.3157119241       25.8245390607
  H         0.1490271805       13.9952412620       25.9149965766
  C        -0.3834797208       12.3002798923       26.9937947779
  H         3.6856912173       12.3868011696       23.4207940463
  H         3.2261269417       12.7974343115       24.9218446169
  C         4.7642980895       14.0287414624       24.0913135505
  C         2.1509406653        9.2603434219       20.0604602656
  C        -0.5753568762       10.9639008208       26.9916172332
  H        -0.2732404585        9.1650007974       25.7810545783
  C        -0.7580822967       12.7065564616       28.2478126914
  H         5.4142760328       13.3455617035       24.5633583529
  H         4.6101737572       14.8874523014       24.8739568035
  C         5.4538800751       14.5267133101       22.7755270310
  C         2.2824990838        7.8983622793       19.7713144166
  C         2.4081124459       10.1475736016       18.9105531060
  C        -1.0001804565       10.3332691988       28.2640540902
  C        -1.1198260164       11.6360660150       28.9789935906
  S        -1.0340966444       14.2157325356       28.9795409150
  H         6.1364002699       15.3865736926       22.9896186777
  H         4.7127604673       14.9827920652       22.2209016422
  C         6.0450681672       13.4303168177       21.9486040914
  N         2.0723235308        6.8573936789       20.7391285792
  C         2.6107755853        7.4376878866       18.4775995655
  C         2.8594829400        9.7669168223       17.7094382070
  H         2.5524049741       11.1664375717       19.0750732886
  C         0.1431306377        9.5477775201       28.8239490714
  C        -2.3475055065        9.6012571950       28.1271653579
  C        -1.4647465852       12.0713518513       30.2626976552
  C        -1.4149189350       13.4527921037       30.4261072814
  H         7.0874242876       13.5037011035       22.3095206938
  H         5.6585708864       12.4856920233       22.3776682873
  C         5.7599850768       13.5925867295       20.4583204026
  S         2.2417212696        5.4357267638       19.9011125701
  N         2.6894656084        6.0104601211       18.4443002496
  C         2.9276278847        8.2820711362       17.4317567060
  H         3.2733552760       10.4437014918       16.9905809307
  H         0.4773355771        8.9544728967       28.0430449092
  H        -0.3196756336        8.8284041042       29.4907358215
  C         1.3820052327       10.2544359792       29.2851451255
  H        -2.2775117506        8.9512453775       27.2892327489
  H        -2.4886647639        8.9871472463       28.9683680238
  C        -3.5825518238       10.4401798472       27.7003009089
  H        -1.6463255980       11.4368108037       31.1435477788
  C        -1.7563833924       14.2926386506       31.6432205697
  H         5.3889603180       14.5068433367       20.1097168390
  H         5.0514648715       12.8289162305       20.2166260800
  C         7.0352422808       13.4237714586       19.5955972589
  C         3.2005009507        7.7529320365       16.0867553042
  H         1.9481917611       10.6955316101       28.4520223738
  H         1.0314980825       10.9581013207       29.9889560527
  C         2.3040169315        9.2986976963       30.0652459989
  H        -3.2724518394       11.1990247665       26.9893502381
  H        -4.0144363133       11.0355482505       28.5326794057
  C        -4.7233398470        9.6042098980       27.0569740455
  C        -1.7457958337       15.6887044852       31.8090400030
  C        -1.8341925615       13.5537059857       32.9068456847
  H         7.7986703081       14.1939881314       19.8332715429
  H         7.5363155742       12.4364924952       19.7510990422
  C         6.8376962164       13.3791282463       18.0785222700
  H         3.1712881971        6.6710891558       16.1753288051
  C         3.4562581418        8.1833433554       14.8634538896
  H         2.7420208229        8.5967554664       29.3398385973
  H         1.8118147656        8.6851692712       30.9348067151
  C         3.5132377573       10.0726392645       30.5957045096
  H        -4.2759060174        9.0721666859       26.2014582703
  H        -5.2562813997        8.8801096076       27.7069307019
  C        -5.8054555449       10.4902269373       26.5058688710
  N        -1.3951280627       16.6670803804       30.8284049922
  C        -2.0388468962       16.3312836214       32.9795442775
  C        -2.0680887623       14.2097487794       34.1297912147
  H        -1.7441537867       12.4922623179       32.8467501355
  H         7.1107039129       12.3758192249       17.7056850251
  H         5.7818036991       13.5874493551       17.6348935341
  H         7.4724742210       14.0995873808       17.5880454951
  S         3.8264510148        9.8367046956       14.4077291656
  C         3.6487124767        7.2207916890       13.7524415702
  H         3.6068110784       10.9846190988       29.9909776610
  H         3.2446823425       10.2215662272       31.6518949369
  C         4.8289388740        9.3027606443       30.4387110450
  H        -5.4146608561       11.3299246408       25.8969146574
  H        -6.3315510518       10.8758652980       27.3642242923
  C        -6.8025428120        9.7707596733       25.6288851509
  S        -1.6437858139       18.1172308868       31.4332992696
  N        -2.0984771151       17.7456952049       32.9414497374
  C        -2.3117564348       15.6335435635       34.1605711500
  H        -2.3433031669       13.5060925847       34.9152249732
  C         3.9713572956        9.2023199046       12.7350639214
  N         3.9701950033        7.8754943839       12.5862879506
  O         3.5332087538        6.0029932079       13.8468672805
  H         5.6924212124        9.8965489890       30.5769044409
  H         4.9284062955        8.8046977720       29.4589666920
  C         4.7263244536        8.1553416362       31.4812785770
  H        -6.3153522721        9.4359074242       24.7044111780
  H        -7.0048160120        8.7981989649       26.1688452178
  C        -8.0243084008       10.6277746610       25.3453856386
  C        -2.7847891976       16.3591735365       35.2224609384
  S         4.5972050869       10.1838770049       11.4330394056
  C         4.2542076482        7.2134875424       11.3021345538
  H         4.5538356892        8.5076935681       32.5339933157
  H         3.8940578468        7.5182769173       31.2584829306
  C         5.9831510081        7.3518331402       31.5210982344
  H        -7.7355156525       11.2233181484       24.5020881706
  H        -8.2424898489       11.2500104333       26.2111971640
  C        -9.2034197150        9.7786545119       25.0238481267
  H        -2.9783151761       17.4477551737       35.0645374261
  C        -3.2525080965       15.9347936768       36.4092222338
  H         5.2892610528        7.5593955764       11.0126455042
  H         4.3759803621        6.1603183490       11.4100816110
  C         3.1316190909        7.4044696473       10.3408290660
  H         5.9325933015        6.6347424232       32.3178500331
  H         6.8809597929        7.8516761643       31.7915178674
  C         6.3252988963        6.4885881296       30.2974941890
  H        -9.8467358197       10.2971535141       24.3323203706
  H        -8.8463593169        8.8556876657       24.5558889516
  C        -9.9643992951        9.4408543588       26.3728984650
  S        -3.8597332741       14.3735949192       36.8283979857
  C        -3.4118232567       17.0550361863       37.3650846509
  H         2.8941195303        6.4427529113        9.9585005862
  H         2.2855124895        7.9608713487       10.7358430767
  H         3.3886321021        7.8237503747        9.4319251463
  H         6.8556700679        5.5864513739       30.7250880881
  H         6.9469682862        7.0804354705       29.5208931347
  H         5.3601749111        6.2261677160       29.8934287637
  H        -9.4262389433        8.7684924112       27.0225856324
  H       -10.9727282023        9.0601046263       26.0896261092
  H       -10.2013626903       10.3256932428       26.9602688695
  C        -4.1793272238       15.1335041714       38.4165368957
  N        -4.0131996210       16.5071874853       38.5058108383
  O        -3.0550916502       18.2236049862       37.2001739787
  S        -5.1179643588       14.3724130695       39.8250527640
  C        -4.2201289308       17.4263681364       39.6354246353
  H        -4.3157834007       18.4814817743       39.2375834508
  H        -5.1665533020       17.1970761484       40.0493645237
  C        -3.0197213515       17.3108731501       40.5689931017
  H        -3.2023194600       17.8783704885       41.4249734092
  H        -3.1681214333       16.2609775012       40.7976220213
  H        -1.9943121820       17.4741632233       40.1395813914
  H         7.4648663544       11.8849041552        3.3164484164
  C         8.0186372664       10.9718355869        3.5749966995
  H         7.2167676955       10.2807027968        3.7211026126
  C         8.8996757288       11.1299853217        4.8322809965
  C         8.8039194506       10.5713617368        2.2695913157
  C         8.0053880809       11.2776634729        6.0687568264
  H         9.5259249466       10.2739881984        5.0001632832
  H         9.5345920978       12.0128551333        4.6404036623
  H         9.7395574582       10.1831744834        2.7027125472
  H         9.0423454374       11.5325342551        1.6930519598
  H         8.2266202887        9.8654252606        1.7129051653
  C         7.5570720508        9.9101389764        6.6507581326
  H         8.4909207460       11.8871660544        6.8262024455
  H         7.2739241918       11.9779163341        5.8116059701
  C         6.6474659498        9.9242105579        7.8369516977
  H         8.3372279866        9.2303382540        6.8846417684
  H         6.8051913312        9.5890069130        5.9179376143
  C         5.3804381502       10.8232843143        7.8086997109
  H         7.2609644712       10.2615447368        8.7161634015
  H         6.3914103089        8.8374561997        7.9685304290
  C         4.1491804770       10.1602898442        7.1136754587
  H         5.1279319194       11.1663596953        8.8129114587
  H         5.5856199416       11.6195398736        7.1340092169
  C         2.8925998436       11.1399587749        6.8139260380
  H         3.9288850992        9.2712057176        7.7324670083
  H         4.4082372841        9.9307801106        6.0783421021
  C         3.2553925135       12.4700424519        6.2135501241
  C         2.3241867627       11.7445294710        8.0719472887
  C         1.7679085046       10.4093546563        5.8713694121
  C         2.8363078580       13.5221004642        6.9780987948
  C         3.7203657930       12.8340519984        5.0127300833
  C         2.3410644529       13.0859394814        8.1926120566
  C         1.7525702617       11.0667286846        9.1395867845
  H         2.1556480343        9.9874431652        4.9307230927
  H         1.4968741723        9.6076010732        6.5113853818
  C         0.5103179329       11.2451271214        5.5875762171
  S         3.3608260649       15.0168208655        6.3507014983
  C         3.8513179086       14.2050582005        4.9213922322
  H         3.7608316746       11.9646071876        4.2778331902
  C         1.9348800551       13.6516926331        9.3377747662
  H         1.7220810119        9.9272141251        9.0024163558
  C         1.3941624729       11.5786793031       10.3086020584
  H         0.7452762540       12.1857449773        5.2772564613
  H         0.1019764013       11.5400318139        6.5508801034
  C        -0.4791994751       10.5451442374        4.5734044835
  C         4.2727426251       14.9138837627        3.6756585341
  C         1.5357990655       12.9221176904       10.4532157609
  H         2.0387463872       14.6915953339        9.4750748385
  C         1.0764906778       11.1306152747       11.5517293208
  H        -1.2932887766       11.2578525715        4.5185391840
  H        -0.8526870050        9.6821824229        4.9524375387
  C         0.0700094311       10.2979418318        3.1635178557
  C         4.2919390335       16.3156242352        3.3596384480
  C         4.7673701777       14.0697968979        2.5438274883
  C         1.0198602432       13.5789728741       11.7101913982
  C         0.8068762691       12.1682122701       12.3435026116
  S         0.7293068183        9.5713648220       12.1815339106
  H         0.8018810457        9.4371291044        3.2161781184
  H         0.6755041000       11.2006984199        2.9464162158
  C        -1.0107410354       10.0731058721        2.1620874482
  N         3.8530579355       17.3731624990        4.1826789187
  C         4.4841025610       16.6891096234        2.1003047831
  C         5.1375828075       14.6134032219        1.2958458958
  H         4.9598807922       13.0674358786        2.6941670387
  C        -0.2891570138       14.4473138897       11.5102343496
  C         2.0350268979       14.3704842440       12.6434815793
  C         0.3151042149       11.7520618944       13.6018105222
  C         0.2578177967       10.3788034884       13.7095581078
  H        -1.4272535915        9.0994894983        2.2503022051
  H        -1.8545898696       10.8382812027        2.3380381906
  C        -0.3179999428       10.1748706450        0.7721450355
  S         3.8104592134       18.7281579244        3.4058735468
  N         4.3165394632       18.1153914140        2.0258448665
  C         4.9623130483       15.9859448568        0.9573849346
  H         5.5773420804       13.9322074855        0.5503987278
  H        -0.2030043765       15.2391902523       10.7223724164
  H        -0.3537835107       14.7990444116       12.4808449597
  C        -1.4609284308       13.5484925478       11.0376203487
  H         2.4390245398       15.3016724530       12.2557756637
  H         1.5329800692       14.6776292067       13.5680357023
  C         3.3343187074       13.5100214284       12.9380236990
  H        -0.0863222734       12.4807415645       14.2704706514
  C        -0.0947320614        9.6778292639       14.9513782325
  H         0.5006317411        9.4548813243        0.7290207604
  H        -0.0315665265       11.2624477859        0.6266666387
  C        -1.3061280274        9.6338776306       -0.3036305741
  C         5.1245432211       16.6652272700       -0.3032928391
  H        -1.2438874991       13.2407471942       10.0278206108
  H        -1.6982101056       12.7933373730       11.8130594535
  C        -2.6199532213       14.4694649725       11.1635109650
  H         4.0044174567       13.2867679101       12.0399601258
  H         3.1484698425       12.4873877326       13.2358311060
  C         4.1499822428       14.1921503468       13.9021122126
  C        -0.0081087565        8.2721843564       15.0699718018
  C        -0.3557030242       10.5119330778       16.2161310082
  H        -1.1323926432        8.5785023523       -0.3469589279
  H        -2.3034704015        9.8326537644        0.0244050319
  C        -1.1402637759       10.4466075170       -1.6458550445
  H         4.8973746103       17.6909398174       -0.2556668066
  C         5.4553206213       16.2178062679       -1.5772295320
  H        -2.4560131486       15.2690721905       10.3862772496
  H        -2.6159300147       15.1548073664       12.0279791711
  C        -3.9674964721       13.6976205833       11.3110836122
  H         4.2751337539       15.1774843531       13.5569944681
  H         3.6365421980       14.3852149637       14.8395901552
  C         5.5876216403       13.6474992439       14.2580692312
  N         0.2711883403        7.3263566044       14.1012179536
  C        -0.1542143616        7.6756277158       16.3392725217
  C        -0.4212025897        9.8163690942       17.4465116061
  H        -0.4992329360       11.5826859526       16.2470470027
  H        -1.9892167222       10.5073994953       -2.3726321753
  H        -0.1793266964       10.3613421030       -2.1442460483
  H        -1.1111045796       11.5045260714       -1.3644815149
  S         5.8986710797       14.6415435800       -1.9411614368
  C         5.4071717062       17.2397859898       -2.6142288372
  H        -4.1138151276       12.8927397755       11.9879237778
  H        -4.6866311062       14.4631263549       11.5614678998
  C        -4.3066365556       13.1226065232        9.9033705675
  H         5.6203348962       12.6205211984       13.7482018095
  H         5.6244032155       13.5278048220       15.3080412272
  C         6.7482736892       14.3196788638       13.6245486213
  S         0.1254111534        5.8407312866       14.7117420067
  N        -0.2698780509        6.2601843843       16.2489915664
  C        -0.4005211786        8.3691532051       17.5443157408
  H        -0.7195457895       10.3295262852       18.3776339507
  C         6.0527125215       15.2743009327       -3.6526981865
  N         5.9150752703       16.6169147646       -3.7186989249
  O         5.1986923057       18.4237585562       -2.5177066047
  H        -4.0969218437       13.7684369411        9.0864201685
  H        -3.6929477057       12.2347203688        9.8078478970
  C        -5.7709578107       12.7036588888        9.8146035296
  H         7.4229858079       13.5256769309       13.2831631389
  H         6.4154287736       14.9776154424       12.8063591446
  C         7.5486471908       15.2891159083       14.6100385824
  C        -0.6781520993        7.5807201631       18.7185692950
  S         6.3777115795       14.4416034377       -5.0958442615
  C         5.9015883410       17.2863128365       -5.0201956497
  H        -5.8388911878       11.8555677459        9.1076131663
  H        -6.0735177034       12.3613525988       10.8047673221
  C        -6.5739129636       13.9250444598        9.4623745408
  H         8.5835890899       15.4450821865       14.2847594578
  H         7.5010539579       14.7747492613       15.5653394977
  C         6.8978486652       16.6910843749       14.5871286061
  H        -0.3822116322        6.5880253041       18.6740341000
  C        -1.2831189249        7.7995794150       19.9250100705
  H         6.7195611866       17.0907158442       -5.6605593384
  H         6.0123042333       18.3021745042       -4.8434849252
  C         4.4635869149       17.0478220341       -5.5541432237
  H        -6.7368821432       13.9577952016        8.3741899877
  H        -5.9570825925       14.8036862598        9.7323645057
  C        -7.8463288803       13.8790388964       10.2077084642
  H         6.7112263557       17.1443400630       13.5870742163
  H         5.9022642002       16.5602006437       15.0089772659
  C         7.5224731132       17.8025600789       15.4779777561
  S        -1.9112690939        9.2560946255       20.4824840584
  C        -1.3108682807        6.6601833390       20.9025322095
  H         3.9372741753       16.1639194087       -5.2300039806
  H         4.4335823902       16.9576609544       -6.7118506535
  H         3.7672697919       17.8073409433       -5.2869817521
  H        -8.2997310754       12.9922001989       10.5160231583
  H        -7.6284892283       14.4993834805       11.0921143048
  H        -8.7045155419       14.3203593376        9.6958396661
  H         7.6913673859       17.5608692597       16.5011204975
  H         8.5410746346       17.8860423152       15.1682921473
  H         7.1544254071       18.7778769921       15.2672899261
  C        -2.4236003702        8.3439989929       21.8994216684
  N        -2.0527573482        7.0580027644       21.9240034653
  O        -0.7047250382        5.6027487964       20.7967055459
  S        -3.2986799520        9.0266072573       23.2958330150
  C        -2.2176378923        6.1921234366       23.0936971639
  H        -2.2239654668        5.0626340543       22.7672757439
  H        -3.2057484594        6.2800090338       23.5594747012
  C        -1.0218597397        6.1946947603       24.1026985390
  H        -0.1164327467        6.1178568098       23.5403954775
  H        -1.1430369697        5.3100414539       24.7780118175
  H        -0.8921964064        6.9926142738       24.8209094006
