352
i =
  H        -4.1217040551       13.8072950787       15.7623423411
  C        -3.5167853950       12.9364739936       16.0255997470
  H        -4.2548170443       12.2304073463       16.3061996334
  C        -2.5036194752       13.1864999334       17.1074567900
  C        -3.0238534861       12.5116303082       14.6688549978
  C        -3.1253655900       13.2210663089       18.5182290818
  H        -1.7980719257       12.3569839562       17.0588034664
  H        -1.8571219506       14.0775757114       16.8805592760
  H        -3.8333977764       12.2361369791       14.0234058073
  H        -2.5929545900       13.3852604788       14.1771103497
  H        -2.2382767215       11.7314448743       14.6420458113
  C        -1.9892530121       13.2433816887       19.4961051663
  H        -3.8443954452       12.4011647564       18.6895405848
  H        -3.7381510878       14.1181082659       18.5857741131
  C        -2.4632885560       12.8121881038       20.8833746767
  H        -1.2344137594       12.6085762297       19.0913512362
  H        -1.5158829438       14.2621926397       19.4526149979
  C        -1.3954528607       12.3624959841       21.8873136922
  H        -3.1102273689       11.9727061100       20.7204458138
  H        -3.0566778090       13.5550102346       21.2748502121
  C        -0.3673817129       13.4329431671       22.3346332747
  H        -1.8667555418       12.0541891178       22.7921051331
  H        -0.8849752575       11.5579869559       21.4344724587
  C         0.8924965194       12.7676781380       23.0397102134
  H         0.0217081615       14.1613318918       21.5542421614
  H        -0.8532292817       14.0369105671       23.0910048205
  C         1.4249043371       11.5084363488       22.3947144166
  C         0.4133930738       12.1284103211       24.2774054309
  C         2.0034408156       13.7802887410       23.2346326695
  C         1.0871830589       10.4138933850       23.1801173924
  C         2.2001219520       11.0725679907       21.2990152049
  C         0.4391828498       10.7851264145       24.3389128443
  C        -0.0276900284       12.7665365098       25.4523630655
  H         2.3086905543       14.2753876313       22.3047740798
  H         1.6787182131       14.6186695022       23.8231264778
  C         3.2528279952       13.1179846080       23.8975162487
  S         1.5705140757        8.9144144283       22.4993830251
  C         2.1871246139        9.6819126454       21.0981087187
  H         2.5113694992       11.7745483267       20.5487440078
  C        -0.1200905906       10.1116152518       25.4246358823
  H         0.0239764285       13.8586229161       25.5886434282
  C        -0.4765141619       12.1256234128       26.5764565468
  H         3.5255683389       12.3464706372       23.2698727531
  H         2.9293810543       12.8016501143       24.8505256554
  C         4.4855756558       14.0726594778       24.0110511715
  C         2.6502121885        8.9586619654       19.8090213095
  C        -0.5241253189       10.7686577386       26.5754118778
  H         0.0131878245        9.1168674200       25.4801312455
  C        -0.9500328835       12.4336431961       27.7829188099
  H         5.1938572847       13.7838138795       24.8427967548
  H         4.2019187188       15.0641075906       24.4303703846
  C         5.2199945760       14.4207690901       22.6539753087
  C         2.6399684552        7.5927881141       19.5730479501
  C         2.9726310458        9.7524315449       18.6176363241
  C        -0.9189620325        9.9531831097       27.8397957203
  C        -1.1384340028       11.2733754022       28.5499303062
  S        -1.2225873069       13.9062200240       28.6483840332
  H         5.7536106158       15.3936117614       22.7675174889
  H         4.5104541699       14.4871281311       21.8370120024
  C         6.2715554916       13.2919926715       22.4724252736
  N         2.2174980348        6.6165428147       20.4963238601
  C         2.9324911779        7.0515941528       18.3404611342
  C         3.4026270382        9.2231408432       17.4124083806
  H         3.0910077406       10.7675982478       18.6724347781
  C         0.1958175620        9.0939108005       28.4851090867
  C        -2.1993479643        9.1249146304       27.4690760085
  C        -1.6422063083       11.6327759828       29.7738124746
  C        -1.6076721361       12.9481978742       30.0255114116
  H         7.2265834051       13.6965424796       22.2407969605
  H         6.3766171977       12.6444334668       23.3734501812
  C         5.9807535566       12.4412662508       21.2518314952
  S         2.1483053676        5.1801230369       19.7861765307
  N         2.7087164129        5.6384500283       18.3145234475
  C         3.2311944272        7.7714780283       17.2028089575
  H         3.7183092872        9.9294344448       16.6879557547
  H         0.5913428913        8.4316379302       27.7232318563
  H        -0.3146576347        8.5574333622       29.2777489145
  C         1.4301441531        9.8079207420       29.0990084226
  H        -1.9423614146        8.4490297434       26.6579126330
  H        -2.5194316647        8.6408538832       28.3575554242
  C        -3.3986393964        9.9969019581       27.0095951916
  H        -1.9328395454       10.8999632173       30.4779918409
  C        -1.9463177445       13.6144138551       31.3549780999
  H         4.9445236814       11.9576317350       21.3865576965
  H         6.7102437444       11.7205331137       21.1796844548
  C         5.9190114255       13.2406764380       19.8965766442
  C         3.4270351793        7.1108979056       15.9673124407
  H         2.0461438412       10.3012901166       28.3715057311
  H         1.0649701502       10.5409734030       29.8238137762
  C         2.3723325848        8.8831106654       29.8320554762
  H        -3.1203942495       10.5305854175       26.0872188910
  H        -3.5663385567       10.7841165071       27.7327721235
  C        -4.6840482997        9.2466169735       26.8028313669
  C        -2.1013413196       14.9724242820       31.5622123156
  C        -2.1117912619       12.7572177714       32.5660951406
  H         5.5476811901       12.4785506661       19.2297257512
  H         5.1869188516       14.0333045494       19.8221016650
  C         7.2098472149       13.4947261597       19.2737251711
  H         3.5101730096        6.0331220208       16.0268833631
  C         3.6906897794        7.4976165488       14.6844482905
  H         2.6565486999        8.1485118709       29.1121056400
  H         1.8321405892        8.2489912390       30.5041294818
  C         3.5308480758        9.5892583563       30.5397131352
  H        -4.6600543624        8.6959655447       25.8741944126
  H        -4.7536123270        8.3534824700       27.3870829968
  C        -5.8968601816       10.2168868349       26.9145093926
  N        -1.8707354426       15.9537764032       30.6090788826
  C        -2.3249888853       15.5785482929       32.8135759388
  C        -2.4357307833       13.2976070659       33.7967303362
  H        -2.0625405625       11.6898600107       32.5583024600
  H         7.4293325431       12.5686167439       18.7244633449
  H         7.4266046925       14.3726221083       18.6013983055
  H         7.9777313365       13.5761135776       20.0265992690
  S         3.8360819036        9.1230924642       14.1337117658
  C         3.8186698379        6.4213878624       13.6755167805
  H         3.4705327806       10.7372375034       30.3052932572
  H         3.3500258289        9.4908796576       31.6060231313
  C         4.8995665475        8.9742438154       29.9882581511
  H        -5.7329520320       11.0701400917       26.2678140705
  H        -6.1175104620       10.5360511064       27.8918037677
  C        -7.1354775748        9.4917923456       26.4064462351
  S        -1.7903838042       17.4296488195       31.2935065795
  N        -2.3438083721       16.9745829612       32.7741321547
  C        -2.5796216736       14.8236606790       34.0040131642
  H        -2.5460902616       12.6833990303       34.6902991066
  C         4.0602755381        8.3807268848       12.4988270390
  N         4.0078383682        7.0481688348       12.4652129684
  O         3.4868191667        5.2726189802       13.8085310732
  H         5.7597249445        9.6792463202       30.2882693359
  H         4.8613085521        8.9454211917       28.9271136502
  C         5.0650223767        7.5311586713       30.4974183011
  H        -6.9559991863        8.4353159417       26.5955244060
  H        -7.8489770672        9.8500169974       27.1047284721
  C        -7.5343433830        9.7968592333       24.9911020549
  C        -2.8279602238       15.4402870612       35.2617730831
  S         4.5284417688        9.3964390264       11.1274970225
  C         4.1578513213        6.3438210205       11.2283546134
  H         4.8586066936        7.4156809203       31.5575144070
  H         4.1364754810        6.9212040309       30.2464649366
  C         6.3712472698        6.6922704191       30.1465480114
  H        -6.7734766510        9.2781260444       24.4346777940
  H        -7.3356888403       10.9002942440       24.8256609014
  C        -8.9677508732        9.3817502282       24.5832581320
  H        -2.5953844042       16.4914015135       35.3206735264
  C        -3.4221805463       14.9335413450       36.3950574157
  H         5.0485016027        6.6789707518       10.7547833387
  H         4.3203413591        5.2493206811       11.4867949522
  C         2.8551293703        6.5439499124       10.4011241248
  H         7.2105965154        7.2499608633       30.5359352674
  H         6.5532975505        6.6447835499       29.0149174677
  C         6.2190155349        5.3485635226       30.6865326986
  H        -9.3132339246       10.0707393986       23.8159667754
  H        -8.8825181040        8.3935173731       24.2173920511
  C        -9.9481507371        9.6132097630       25.6896531155
  S        -3.9871205363       13.3900066235       36.7973818240
  C        -3.6788011819       15.9111032101       37.4605264484
  H         2.3979266217        5.5876865617       10.1623093237
  H         2.1333068078        7.0524998330       10.9785506527
  H         3.0817305403        7.0665697353        9.4684262507
  H         6.3610826414        5.3855410742       31.7363376165
  H         6.8491173910        4.5880935787       30.2290989125
  H         5.1576899988        5.1033186246       30.5168912803
  H       -10.9069412974        9.6985162486       25.2387960902
  H        -9.7582614288       10.5352114385       26.1087888366
  H        -9.9067986245        8.8609157623       26.4752287426
  C        -4.5792724582       14.0163670099       38.3015782859
  N        -4.3800720688       15.3419596307       38.4041776089
  O        -3.2850367558       17.0907482715       37.5235396441
  S        -5.0335549409       13.0847557881       39.7576175860
  C        -4.7986257802       16.1048391114       39.6125090556
  H        -4.7627331076       17.1862429227       39.4013162868
  H        -5.8106701642       15.9091866536       39.9281047532
  C        -3.8999746097       15.8421192992       40.8126523297
  H        -4.3881638732       15.6778115631       41.7618762875
  H        -3.2144366329       14.9563722338       40.6419117988
  H        -3.2880025460       16.7261267401       41.0336622648
  H         7.0563581709       11.0886912864        3.0890053424
  C         7.8854948631       10.3787837561        3.2655012471
  H         7.4144359900        9.4470239479        3.4796555243
  C         8.6510161829       10.9254013148        4.4850258940
  C         8.6562192150       10.3556389180        1.9476706910
  C         7.7689315684       10.9054127628        5.7257511099
  H         9.4747103340       10.2594385198        4.6970708456
  H         9.0293902373       11.9375650744        4.2485523489
  H         9.7343058358       10.2235656399        2.2215733406
  H         8.5534911202       11.1271021535        1.2504244411
  H         8.2542328313        9.5252027205        1.3560471815
  C         7.4011618057        9.5153242531        6.3220739063
  H         8.3425054275       11.4725972967        6.5375694576
  H         6.9062370447       11.5207931019        5.4517208480
  C         6.7259108280        9.5400212459        7.6734440395
  H         8.2841464565        8.8127273398        6.1999885796
  H         6.6025814030        9.1406454009        5.6675898904
  C         5.4192760135       10.3218871403        7.6526221281
  H         7.4270591042        9.7819361571        8.3745470553
  H         6.4481184630        8.5963542564        8.0986704735
  C         4.2050380159        9.5304745742        7.0277636557
  H         5.2419113965       10.3990714306        8.7165905586
  H         5.5536027305       11.3307474581        7.2342767654
  C         2.9165228678       10.3095266466        6.7643405060
  H         3.9325785859        8.7411923239        7.7484320408
  H         4.5099944468        9.0246791911        6.1660817753
  C         3.2263448329       11.6751278785        6.0672319896
  C         2.3878046203       11.0120392124        7.9364156616
  C         1.8887595410        9.2817803786        6.0961157414
  C         2.9347001512       12.7719716173        6.8761602204
  C         3.6886042045       12.0972975665        4.7860854131
  C         2.3689503383       12.3583783369        8.0615710172
  C         1.9493435355       10.3741890878        9.0992698090
  H         2.4705647403        8.8256686296        5.2649269106
  H         1.7339896455        8.4336719601        6.8090055612
  C         0.5710666142        9.7997120243        5.5471805540
  S         3.3927910134       14.2466216536        6.2232273116
  C         3.7877092364       13.4348685467        4.6889800112
  H         3.8683081654       11.4059375755        4.0366727536
  C         2.0446982726       12.9286658180        9.2750118792
  H         2.0885966017        9.3171032018        9.1077904744
  C         1.5551019300       10.9809679310       10.3029388062
  H         0.7416717617       10.9265734130        5.4754474440
  H        -0.2060303519        9.7194617667        6.2985350373
  C         0.1464116422        9.1956867730        4.2031352600
  C         4.2486361411       14.1965031230        3.4701234029
  C         1.6241096851       12.3320225401       10.4348729182
  H         2.0946219434       13.9584811816        9.3531951883
  C         1.1746174033       10.6484893683       11.5800879079
  H        -0.4160348342        8.2693132448        4.4560557011
  H         1.0605660949        9.0296787809        3.5929098319
  C        -0.8348961090       10.0638585370        3.3737738115
  C         4.1820810476       15.5941871692        3.1879787312
  C         4.7316749629       13.4024111193        2.3789164739
  C         1.3214870986       13.0476253638       11.7226965020
  C         1.1183582047       11.7015757493       12.4456224261
  S         0.7441170245        9.0943940499       12.2777885766
  H        -0.2567194936       10.6931541267        2.6773362895
  H        -1.4371605363       10.8173948497        3.9577981030
  C        -1.8436439941        9.1639692113        2.5417700809
  N         3.7714062151       16.6118248768        4.1218511653
  C         4.5374005595       16.1112079422        1.9407347618
  C         5.0358318479       13.9268222408        1.1153652782
  H         4.8338471666       12.3216447367        2.4307414403
  C        -0.0044256728       13.8311712802       11.6533933837
  C         2.4698995340       13.9004768366       12.3812658156
  C         0.9030434411       11.2128241867       13.7808884714
  C         0.6524304152        9.8867247559       13.8342846004
  H        -2.3947449176        8.5143731789        3.2788539165
  H        -2.6312136407        9.8014556846        2.1740800785
  C        -1.1611463501        8.3814798219        1.3901727742
  S         3.7269303113       18.0675724856        3.3396270146
  N         4.5317935487       17.5340543475        1.9944764288
  C         4.9917834007       15.3778988303        0.8290081459
  H         5.3363877835       13.2584966653        0.3353834073
  H         0.0835224572       14.6762271889       10.9791642292
  H        -0.2057969440       14.2045450525       12.5726266891
  C        -1.2803802523       12.9665826183       11.2718291031
  H         2.9188180950       14.6618875704       11.6407977887
  H         1.8718650310       14.5314989453       13.0759394440
  C         3.6071363490       13.0695242046       13.1047278513
  H         0.8123039850       11.8494024365       14.6698471549
  C         0.2932763449        9.1364375907       15.1197175108
  H        -1.9951788631        7.7416919840        1.0371561613
  H        -0.3615700055        7.7139578320        1.7115208928
  C        -0.5542227995        9.3996835377        0.3249044851
  C         5.1118241001       15.9176221171       -0.4399038982
  H        -1.1109467647       12.1087236441       10.6641538559
  H        -1.5172919954       12.4492670297       12.1572944282
  C        -2.4610088795       13.8633602507       10.8002566761
  H         3.7960481464       12.0430366882       12.7236322958
  H         3.3350882231       12.8633832553       14.1608287201
  C         4.8567047330       14.0421945687       13.2641998622
  C         0.2253558673        7.7292363496       15.2471575619
  C        -0.0964582893        9.8975191223       16.3944334469
  H        -1.2152639510       10.3376794106        0.3551131307
  H         0.4216504153        9.8451005572        0.6577279734
  C        -0.4940896608        8.7720092433       -1.0689109721
  H         5.0504844570       17.0292849652       -0.3865184678
  C         5.4488388879       15.4787842447       -1.6829835247
  H        -1.9668317370       14.4955194080       10.0135835954
  H        -2.8729229957       14.4881372165       11.5537150618
  C        -3.5783769213       12.9984760960       10.1662740766
  H         5.5107018405       13.8618511932       12.3985704036
  H         4.5755168804       15.1135058752       13.3318349481
  C         5.6576474233       13.7060306908       14.5083132242
  N         0.4069541211        6.8311927874       14.1594754496
  C        -0.1655002811        7.0580964863       16.3774014689
  C        -0.3244520608        9.2357434692       17.6028078214
  H        -0.1842812230       10.9688334344       16.3439363688
  H        -1.1421733949        9.3172454439       -1.7218756289
  H        -0.8333236983        7.7173248389       -1.0008318048
  H         0.5250097291        8.7000623574       -1.4745710357
  S         5.7289776667       13.8088012094       -2.1975107715
  C         5.5695254600       16.4781273615       -2.7777729317
  H        -3.2581971153       12.9013339977        9.0432971612
  H        -3.7711935987       12.0230559007       10.6794159169
  C        -4.9807040212       13.6791743032       10.0781272484
  H         6.1814430859       12.7844605697       14.4931765763
  H         4.9520177978       13.6679850128       15.3280372690
  C         6.8249644644       14.6523274632       14.7159770543
  S         0.0852884074        5.3130175802       14.7483409370
  N        -0.2304341883        5.6658505052       16.2758283986
  C        -0.3927743472        7.7450979533       17.6252153742
  H        -0.5377857222        9.8407943403       18.5093173193
  C         5.9161189878       14.4767847190       -3.8343506873
  N         5.8016731868       15.8409145874       -3.9468274897
  O         5.1905530278       17.6315643708       -2.5851905293
  H        -5.4448741740       13.7777747421       11.0689691130
  H        -4.9043456435       14.7424979359        9.8357704087
  C        -5.9538061335       12.8862226445        9.2090357791
  H         7.4261202933       14.2678796878       15.5918641719
  H         7.3874301798       14.6400812728       13.8467259046
  C         6.4122176983       16.0932514475       15.1383824548
  C        -0.6805980319        6.8945520958       18.7409144197
  S         6.2636247941       13.5055499978       -5.2871405867
  C         5.9270810010       16.5568397656       -5.2582790775
  H        -5.5202365316       12.7090340910        8.3067443837
  H        -6.1804720456       11.9256873872        9.6825369778
  C        -7.3139462105       13.5813039226        9.0099898305
  H         5.7756572850       16.0925369030       16.0648115926
  H         5.7732932660       16.5441652921       14.3855632958
  C         7.6435967395       16.9698086179       15.3874783600
  H        -0.4832978934        5.8357265068       18.6462901417
  C        -1.1936258848        7.1742805349       20.0162936678
  H         6.6913964375       16.1571859201       -5.8838309435
  H         6.2917109768       17.5699627499       -5.0374747213
  C         4.6190292056       16.5666948184       -5.9934985237
  H        -7.7773232807       13.2029369429        8.0848729826
  H        -7.2368694556       14.6292663682        8.7746639563
  C        -8.1968894073       13.4006489188       10.1856143429
  H         7.2779679202       17.7854833658       16.0238366578
  H         8.5261802663       16.4804390371       15.8957354005
  C         8.1597784243       17.5775605831       14.0715731612
  S        -1.7319492091        8.6880338279       20.6921969652
  C        -1.3007508591        6.0243832706       20.9470646650
  H         4.3823697059       17.5392536099       -6.3742195180
  H         3.8426813273       16.2670221494       -5.3241779039
  H         4.6935470720       15.9292726083       -6.9516125506
  H        -9.2484264153       13.7095016990        9.9752533908
  H        -8.3032830036       12.3977919244       10.5842194762
  H        -7.7214533384       13.8524126663       11.0776514999
  H         7.4069549963       18.0644138594       13.4744623715
  H         8.8012489948       18.4446104840       14.2223868822
  H         8.7706315003       16.8779391517       13.5926655896
  C        -2.1885008506        7.8252405983       22.1657980105
  N        -1.8465995825        6.5193138007       22.1264650959
  O        -0.8602235323        4.8803410113       20.7400117775
  S        -3.1619177664        8.5067509340       23.4609617077
  C        -2.0781023008        5.5871009855       23.2658283341
  H        -2.0772192629        4.5171751665       22.9637201135
  H        -3.0494654082        5.7596754508       23.7040325555
  C        -0.9544763584        5.7536036334       24.2919806811
  H         0.0172883006        5.5946245779       23.7872126501
  H        -1.0408619764        4.9037787471       24.9287447280
  H        -0.9387665523        6.7472001455       24.7850108932
