352
i =
  H        -4.1352480282       14.3441416407       16.4643357091
  C        -3.6817090002       13.3743442365       16.6239567501
  H        -4.4839051412       12.7405954231       16.9315647576
  C        -2.4898528688       13.3340849810       17.6445761134
  C        -3.2536798652       13.0487701090       15.1931523634
  C        -3.1236800456       13.3828171668       19.0468274828
  H        -2.0618195576       12.3608187738       17.5152099259
  H        -1.8378982469       14.2104273826       17.5959770992
  H        -3.7672062292       12.2322285276       14.6228970080
  H        -3.4851201865       13.9381483927       14.6687077905
  H        -2.1090269877       12.9417072328       15.1025376074
  C        -2.0447257540       13.2425303893       20.1598178972
  H        -3.8627816417       12.6679645212       19.2404011038
  H        -3.5256356749       14.3624167718       19.2235313337
  C        -2.5512369681       13.2921119791       21.6028597010
  H        -1.5671218353       12.2786921133       19.9559695644
  H        -1.2306841850       13.9580633712       19.9818860639
  C        -1.5228291906       12.7539320052       22.5329975690
  H        -3.4754029726       12.6029288724       21.8049165013
  H        -2.8969368360       14.2462560834       21.8424720012
  C        -0.2831649890       13.6864023372       22.6549602840
  H        -1.9652256488       12.6769877767       23.4533916458
  H        -1.2363341945       11.7484598655       22.3189211214
  C         0.9067354354       12.9825216941       23.3100265524
  H         0.0929196492       14.0884274504       21.7240362947
  H        -0.5733467192       14.5561485169       23.2440182723
  C         1.1813094614       11.6297182585       22.6096522835
  C         0.5012259611       12.2925150493       24.5898328527
  C         2.2113407128       13.8405074656       23.3479013995
  C         1.0762867021       10.5598922053       23.5195142894
  C         1.6964032787       11.2494559095       21.4219840111
  C         0.5955373954       10.9828353853       24.7587806340
  C        -0.0201303454       13.0108126778       25.6818409396
  H         2.2908240983       14.3497388457       22.4133063472
  H         2.0479216640       14.6435883623       24.0847139934
  C         3.5619985272       13.0622699453       23.5523232350
  S         1.4872619330        9.0065260558       22.7974091270
  C         1.7602203760        9.8828998254       21.3046973771
  H         1.9869956221       12.0290935272       20.7582583352
  C         0.2270187442       10.3387922104       25.9141342678
  H        -0.0254362774       14.1186662192       25.7025744734
  C        -0.3676209755       12.4195143851       26.8198151644
  H         3.7273677337       12.2757199205       22.9310871429
  H         3.3318661859       12.4281303979       24.4210564857
  C         4.8666339470       13.8899576072       23.8542628618
  C         2.1266890687        9.1758636416       20.0206626231
  C        -0.3260818617       11.0650177137       26.9660869995
  H         0.4190612815        9.3429882769       25.9262149179
  C        -0.8154333682       12.9218392625       28.0371385483
  H         5.5288390823       13.2426060144       24.3087467136
  H         4.7597541901       14.7990068557       24.5795353959
  C         5.3325322795       14.5622339473       22.5794966904
  C         2.1529021207        7.7687687886       19.7173027896
  C         2.5465038100       10.0049022388       18.9226248491
  C        -0.6894686195       10.4288175478       28.2486119390
  C        -1.0355554592       11.7853380550       28.8593805198
  S        -1.1630822173       14.4333745243       28.8028805722
  H         5.7770863113       15.5568601721       22.9196393185
  H         4.5184662177       15.0243109287       22.1034588000
  C         6.3352448270       13.6583430108       21.8357062650
  N         1.9276391463        6.7293093075       20.6573245985
  C         2.5150741443        7.2764933169       18.5099959491
  C         2.9555919931        9.5197143245       17.7076341723
  H         2.4444212941       11.1028290358       18.9651149247
  C         0.4213222936        9.6669951765       28.9904316751
  C        -1.9386398600        9.5195238647       28.0472420842
  C        -1.3223818465       12.2236740501       30.1380036742
  C        -1.5227648820       13.6063454139       30.2340998102
  H         7.3298582144       13.9251634158       22.1507138781
  H         6.2384326574       12.6162309949       22.1763045424
  C         6.0445999074       13.6953218086       20.3048021683
  S         2.1607526999        5.3016639598       19.8881772854
  N         2.6999484764        5.8588165342       18.4438251847
  C         2.8645065859        8.0813016489       17.3460133266
  H         3.1933868549       10.2194074463       16.9015115568
  H         0.7427652720        8.8920899445       28.3518811034
  H         0.0259844543        8.9697464295       29.7726826033
  C         1.4374066861       10.6387874627       29.5565307360
  H        -1.5857476820        8.5803339667       27.5312138638
  H        -2.2198479982        9.0888972556       29.0514179734
  C        -3.0723085031       10.2303640339       27.3528353433
  H        -1.2683956029       11.4716415739       30.8850412332
  C        -1.8393171786       14.3393082213       31.4999628057
  H         5.3845295054       14.5438257678       19.9760704278
  H         5.4410779073       12.7291172689       20.0038591959
  C         7.2344033267       13.3725477645       19.4653899727
  C         3.2588445646        7.5126301458       16.0739870746
  H         1.8397844662       11.3653457517       28.7732783992
  H         1.0216138135       11.0806708234       30.4829893105
  C         2.5575432284        9.7168553591       30.0380788426
  H        -2.8642627344       10.4965735725       26.3695055226
  H        -3.1954146072       11.2129741921       27.7579528151
  C        -4.3192801443        9.4479398049       27.2124414427
  C        -1.9169896222       15.7257198119       31.7073996016
  C        -2.1556321746       13.4995712529       32.6911994567
  H         8.0869476002       14.0163058526       19.6871979543
  H         7.7005710528       12.3804805367       19.7575427480
  C         6.8538554404       13.4296592026       17.9543366618
  H         2.9514223498        6.4801600124       16.0798538335
  C         3.5845922971        7.9326106405       14.8470816175
  H         2.7115559480        9.0046483292       29.2607580918
  H         2.0862480525        9.1576363593       30.8930560469
  C         3.8622556168       10.4260179043       30.5567039235
  H        -4.0760092868        8.8604163559       26.3477657323
  H        -4.4445016819        8.8040168600       28.0715847438
  C        -5.5486132384       10.4101819372       26.9684065880
  N        -1.5859709555       16.7660253170       30.8034261577
  C        -2.2752010090       16.3451474431       32.9549626981
  C        -2.3987334174       14.0916555155       33.9559466266
  H        -2.0595363928       12.3905763297       32.6483413050
  H         7.6102912343       13.7178153591       17.2651507860
  H         6.4659067940       12.5025289418       17.5154556950
  H         6.0179736081       14.0529664474       17.8420478612
  S         3.7048955404        9.5857771116       14.3635103761
  C         3.6426689101        6.9153218738       13.7587531470
  H         4.0522826798       11.2349214503       29.8578067979
  H         3.8347449984       10.9162687349       31.5531165628
  C         4.9921895078        9.4367950414       30.4342165554
  H        -5.3663312420       11.0700785552       26.1222209736
  H        -5.8097287756       11.0020281316       27.8530994300
  C        -6.8124045676        9.6466398675       26.6352748996
  S        -1.7512306496       18.2308682578       31.5172218427
  N        -2.2517782110       17.7463891586       32.9591726938
  C        -2.6072105294       15.5521814208       34.1058985433
  H        -2.5594871417       13.4399274037       34.7410863464
  C         4.0083676333        8.8724312418       12.7389526368
  N         3.9987849262        7.5306501957       12.6229392677
  O         3.4621609011        5.7126212749       13.9242173771
  H         5.8259941041        9.8678851733       30.9341777139
  H         5.4195364732        9.2728933520       29.4513139893
  C         4.6302813876        8.0930001593       31.1395085546
  H        -6.6288083330        8.6684326670       26.2325080370
  H        -7.3395876681        9.4801297799       27.5994590733
  C        -7.7179393395       10.4471755586       25.7671257806
  C        -2.9326240765       16.1777695832       35.3126063607
  S         4.3562999390        9.8241231933       11.2870462904
  C         4.0291603705        6.7989751496       11.3847328743
  H         4.1882195353        8.3128883020       32.1656469218
  H         3.8351089148        7.5610884960       30.5561416013
  C         5.8808760581        7.2798202909       31.2592889622
  H        -7.1286499127       10.5796349830       24.8343696304
  H        -7.8624513473       11.4284214209       26.3058115561
  C        -9.0153530891        9.7569301797       25.5077888484
  H        -2.6475504608       17.2161966616       35.2081351235
  C        -3.3164692163       15.8892585154       36.6024499816
  H         4.5918317104        7.2467966988       10.6103011842
  H         4.4023793579        5.8724948978       11.6195155419
  C         2.6379023699        6.7526991765       10.7399692022
  H         5.8665928485        6.6442960002       32.1694930517
  H         6.7228260198        7.9447150063       31.5389303552
  C         6.0745201930        6.3136157826       30.1269406447
  H        -9.3209900990        9.7805470531       24.4784060650
  H        -8.9615850120        8.6766464264       25.6623211829
  C       -10.0304775121       10.2463751369       26.4860565819
  S        -3.6685545597       14.3090333265       37.1610733150
  C        -3.4463277258       16.9969210843       37.5378692306
  H         2.2553378376        5.6750742161       10.7455529744
  H         2.0446387417        7.5253967157       11.3051733166
  H         2.8269340520        7.0592408314        9.7009588358
  H         6.8863336091        5.7127197439       30.3419910817
  H         6.3005298018        6.8231079575       29.1868783951
  H         5.2457244377        5.7593547811       29.9487037045
  H        -9.7124327874       10.1123463103       27.4953425534
  H       -10.9784741331        9.6397489595       26.5173018664
  H       -10.2396078199       11.2890251121       26.3779981719
  C        -4.2008347508       15.1337843648       38.6722548872
  N        -3.9302406320       16.5037382978       38.6907937108
  O        -3.0954350236       18.1712178727       37.2035660744
  S        -4.8690212557       14.3546925824       40.0745408765
  C        -4.1376150120       17.4304790917       39.8647298522
  H        -4.3600216368       18.4802102584       39.6371938076
  H        -4.9872197733       17.2191387050       40.3955597408
  C        -2.8870038654       17.1962911425       40.6859812520
  H        -2.6792806301       18.1221962896       41.1886885590
  H        -3.0201798990       16.4303444250       41.4756378371
  H        -1.9036859109       16.9870660479       40.1160831491
  H         7.2362709778       11.5933210681        3.6287126736
  C         7.9967332161       10.8355311999        3.3647961402
  H         7.4189038671        9.9609384884        3.2475653532
  C         8.8780076518       10.7271527564        4.6231919110
  C         8.9197519495       11.0212457066        2.1529621605
  C         8.0549696721       10.7817523153        5.9599839407
  H         9.3418669649        9.7277119976        4.6104710768
  H         9.6824170168       11.5167794599        4.6131992680
  H         9.8245230551       10.4018824371        2.2490491824
  H         9.3638481691       12.0257670843        2.2455811867
  H         8.5107769758       10.8064496040        1.2329918536
  C         7.2774207525        9.4915520229        6.2975220596
  H         8.4636204271       11.3630839026        6.8063453718
  H         7.3045946370       11.4478921006        5.7088408557
  C         6.5719403383        9.6645845141        7.7777642373
  H         8.0137122586        8.7022278657        6.3961176600
  H         6.6394794182        9.2415964838        5.4039430881
  C         5.3917819174       10.5597858481        7.8141839490
  H         7.3228552220        9.9294961860        8.5255737550
  H         6.2947986876        8.6783694779        8.2543948315
  C         4.1509667035        9.9005778655        7.1878604422
  H         5.1382068343       10.7561376986        8.8650318647
  H         5.6282878084       11.4934224566        7.3760680599
  C         2.9580095703       10.8667336799        7.0364143733
  H         3.9002593085        9.0331142007        7.7453027512
  H         4.4645318401        9.7058272813        6.1377043646
  C         3.3055768500       12.2901408704        6.4543963970
  C         2.4646985209       11.5178967689        8.3554837979
  C         1.7696451684       10.1253542983        6.2762982568
  C         2.8963572530       13.3726647937        7.2229498159
  C         3.9136558496       12.6545567517        5.2108017542
  C         2.4498561513       12.8852407915        8.4010333620
  C         1.8613635443       10.8360463126        9.4296893136
  H         2.1739867563        9.5734565242        5.3848851203
  H         1.3943556153        9.2764723973        6.9113777146
  C         0.4839481005       10.9220438088        6.1384024344
  S         3.1866422699       14.8349254177        6.4339427792
  C         3.7768792420       14.0028688122        4.9956238510
  H         4.1677823181       11.8772299750        4.5460353383
  C         2.0154749492       13.3972068457        9.5623269366
  H         1.8310916076        9.8202554496        9.3330683825
  C         1.4513175299       11.3590661836       10.5686051410
  H         0.5597620671       11.8867806005        5.7644136626
  H         0.0369056771       11.0899894750        7.1340446591
  C        -0.5891426107       10.2828421593        5.2322411756
  C         4.2320513522       14.7292492177        3.8080769975
  C         1.5875166272       12.7198240024       10.7370571082
  H         2.0360547545       14.4882352270        9.7327037791
  C         0.9532020720       10.9493872337       11.7647227614
  H        -1.7516133374       10.5461830091        5.2726695915
  H        -0.5583146206        9.1602555418        5.3628885312
  C        -0.1473238765       10.3647052163        3.6926220804
  C         4.1294804873       16.1484836694        3.5195881292
  C         4.6869458086       13.9037632327        2.6546421663
  C         1.1555553342       13.3536890253       11.9837224254
  C         0.8056655230       12.0054167515       12.6561023221
  S         0.6768023764        9.4182192175       12.4224981073
  H         0.5091840235        9.5080935938        3.4780583524
  H         0.4039684800       11.2002379586        3.4003826298
  C        -1.2563771498       10.2619246609        2.6171838704
  N         3.6772607935       17.1629781212        4.2550639377
  C         4.4122932485       16.6087040823        2.1944334029
  C         5.1085013037       14.3575932960        1.4716178582
  H         4.8259110778       12.8238297492        2.8784765931
  C        -0.1056301014       14.2697250139       11.9287846172
  C         2.2069130895       14.0874275448       12.7297887857
  C         0.4502353021       11.5701711102       13.9594308556
  C         0.2948344935       10.1991905168       14.0106809889
  H        -2.1706272337        9.8596503173        2.9427505900
  H        -1.4701193162       11.3306765860        2.2700866826
  C        -0.7581265384        9.4182848873        1.3567638723
  S         3.7819074122       18.5684624943        3.5028912971
  N         4.2300678078       17.9810964352        2.0804048305
  C         4.8731205956       15.8041246148        1.1481359599
  H         5.6539188824       13.6820470595        0.8024588204
  H         0.0292952655       15.1753592477       11.2331965541
  H        -0.2739028051       14.6301285291       12.9136728990
  C        -1.3639795518       13.5440587942       11.3685681994
  H         2.4457378379       15.0024023157       12.2337402950
  H         1.8029924755       14.3169298425       13.7130235988
  C         3.5685616275       13.4124261726       12.9372879060
  H         0.3040148827       12.2845653800       14.8014594414
  C        -0.0500999234        9.3789947440       15.2128201342
  H        -0.9711325253        8.4279668534        1.6986182705
  H         0.2996264538        9.6240815557        1.1108449653
  C        -1.5584775761        9.8039678185        0.0723231666
  C         5.0782546272       16.4317673861       -0.1101904879
  H        -1.1385434809       12.9129458453       10.5353661676
  H        -1.5899883660       12.8808556441       12.2292163736
  C        -2.5700002631       14.5380671185       11.1410165053
  H         3.9136727202       13.0795812752       11.9314792826
  H         3.4508596365       12.5416511280       13.5470859898
  C         4.4955219417       14.4458508067       13.3820384807
  C        -0.0660826607        7.9484293641       15.2789026367
  C        -0.3001323469       10.1136320745       16.5165139554
  H        -1.7711876979        8.9884315894       -0.5492961530
  H        -2.4990354736       10.2158305249        0.3469398454
  C        -0.7858682249       10.8387033659       -0.7413752873
  H         4.9619063142       17.4693395030       -0.0813737812
  C         5.2915939822       15.9059516955       -1.3261433742
  H        -2.5866944817       15.2307272677       10.2888376344
  H        -2.5909669447       15.2383316648       11.9619101621
  C        -3.7568157752       13.7144228931       11.2622726978
  H         4.7924371882       15.1281135971       12.6131001371
  H         4.0805576137       15.0656955630       14.2239547679
  C         5.6629200700       13.7941359356       14.1472133738
  N         0.1678483388        7.1364736350       14.1125639549
  C        -0.4005940259        7.2833720727       16.4520681417
  C        -0.4956634455        9.3788139091       17.6883243363
  H        -0.0729554014       11.1682053009       16.6531908562
  H        -1.2884608722       11.2280045812       -1.6119994243
  H         0.1063873301       10.3576259454       -1.0591527555
  H        -0.4878922284       11.6472019264       -0.1042571293
  S         5.5822389673       14.2818596422       -1.8876352233
  C         5.4451539839       16.8408635422       -2.4924263279
  H        -3.4865875086       12.6624902865       11.3707112424
  H        -4.3946576690       14.0085573430       12.1007906262
  C        -4.4653241501       13.8454106670        9.9672531816
  H         5.4862890761       12.7391947670       13.8494514114
  H         5.6234696813       13.9330527101       15.1876971934
  C         7.0699239867       14.2980286919       13.7276715994
  S        -0.0837281052        5.6033002707       14.6726769282
  N        -0.3297014009        5.8598510137       16.2519174076
  C        -0.6439275149        7.8998989748       17.6754267800
  H        -0.5457711980        9.9248622472       18.5627141413
  C         5.7126984839       14.8623287493       -3.4877425813
  N         5.8285823466       16.1995316151       -3.6293019420
  O         5.4073673487       18.1207990232       -2.3603847246
  H        -4.6689674817       14.8991504049        9.6810271890
  H        -3.7922686660       13.5521269785        9.0938477635
  C        -5.8028615985       13.0757770070        9.9836852201
  H         7.6970712829       13.3715158217       13.7353739207
  H         7.1296710454       14.6232451062       12.6496593955
  C         7.6813723485       15.3751457896       14.5767012332
  C        -0.9402514532        7.0910691280       18.8290317689
  S         6.3035061604       13.8058885257       -4.8285981258
  C         5.9003116575       16.8960872261       -4.9354868352
  H        -5.7155645779       11.9928368795        9.8700300880
  H        -6.4515173353       13.2582746631       10.8560790133
  C        -6.7503925264       13.6600149827        8.8927187364
  H         8.7953849997       15.3779199212       14.4268409858
  H         7.3990046969       15.0462086640       15.6333671352
  C         7.2399139107       16.7800062300       14.3145691033
  H        -0.6443297476        6.0185639838       18.7695626290
  C        -1.4708644309        7.5189726799       20.0018366493
  H         6.4131488226       16.3283211202       -5.7767229334
  H         6.3717493716       17.8943654527       -4.9388340816
  C         4.4206589404       17.1383755666       -5.4363859323
  H        -6.9926153356       12.8543957747        8.2343013377
  H        -6.3339688863       14.5939248552        8.4728286715
  C        -8.0915253738       13.9906205701        9.4852982389
  H         7.3785894068       16.8915455405       13.2228780106
  H         6.1659761545       16.8968646744       14.4583071046
  C         8.0256020565       17.9349886452       15.1067442250
  S        -1.8751087726        9.0907696269       20.4696170294
  C        -1.5726657919        6.4869801181       21.1169455377
  H         4.3264556548       16.3390234038       -6.1578338612
  H         4.2438846989       18.0821727420       -6.0807162497
  H         3.6459359346       16.9559018187       -4.7732456477
  H        -8.6358403273       13.1006430624        9.8603302287
  H        -8.1485262037       14.8724226487       10.1574956735
  H        -8.5142206823       14.3852212662        8.6059464124
  H         8.2262337569       17.5525507020       16.1201505665
  H         9.0499113904       18.2075564008       14.7411473565
  H         7.4716613864       18.8848859791       15.0324838648
  C        -2.1437283182        8.3947570040       22.0601994526
  N        -2.0797081952        7.0523773073       22.1939232931
  O        -1.1213574711        5.3036573891       21.0778811137
  S        -2.5738023044        9.4028086350       23.4324624665
  C        -2.3893632865        6.4012609784       23.4318451300
  H        -2.4930347197        5.3740398917       23.0769965502
  H        -3.2260041300        6.7404952178       23.8944242208
  C        -1.1431318698        6.4304688094       24.3888595899
  H        -0.2927445913        5.8488994937       23.9934084455
  H        -1.5031680780        6.1716297380       25.4298818052
  H        -0.7192044685        7.4343079092       24.5375656887
