352
i =
  H        -4.1642603980       14.2974890239       16.3133357685
  C        -3.5080955946       13.4718241410       16.1657575922
  H        -4.0656569924       12.5486972216       16.4343612633
  C        -2.3021590001       13.4900109192       17.1202472534
  C        -3.0812774988       13.4741587146       14.6399048223
  C        -2.8318363582       13.8633474276       18.4518878812
  H        -1.8585919236       12.5233944728       17.1593186105
  H        -1.6124549337       14.2561521437       16.9401891763
  H        -2.4079473327       14.3628988148       14.5547329942
  H        -2.6305728008       12.5009589451       14.4416810970
  H        -4.0356573994       13.6673857988       14.0068601569
  C        -1.7988935677       13.4610052054       19.5519419915
  H        -3.7083358510       13.2729144941       18.6247737200
  H        -3.1322400011       14.9149588892       18.5977973218
  C        -2.5051353686       13.4076228913       20.9915957490
  H        -1.2879771085       12.5077670004       19.3086944613
  H        -1.0779584044       14.2389228210       19.5259247729
  C        -1.4621451963       13.0152833826       22.0922786215
  H        -3.3004206486       12.7061797752       20.9409097035
  H        -2.8657236430       14.3887367869       21.2855637306
  C        -0.2905192530       13.9295975192       22.4387095932
  H        -2.0258693002       12.9031762323       23.0283653113
  H        -1.1294287208       12.0511513111       21.8309462564
  C         1.0186941368       13.2753244073       23.0633929779
  H        -0.0287457114       14.5423442167       21.5811451932
  H        -0.6407670745       14.6065820495       23.1716066759
  C         1.4146448528       11.9008141790       22.4380818847
  C         0.6426493355       12.5627189753       24.3544023997
  C         2.2952459622       14.1867865511       23.2346544493
  C         1.2956078993       10.8322046174       23.2534370971
  C         1.9381266018       11.4573584196       21.2405778159
  C         0.9146100310       11.2724934148       24.5166564246
  C         0.2164287651       13.2064716877       25.5473543484
  H         2.5203370265       14.5113407942       22.2214224343
  H         1.9791405435       15.0552475738       23.7503099159
  C         3.5733650506       13.4590887100       23.8141519715
  S         1.6352767782        9.2545978423       22.5576076189
  C         2.1074497947       10.0930857693       21.1362340533
  H         2.1380282275       12.2272531262       20.4658484999
  C         0.6635073985       10.6843499498       25.6586645343
  H         0.2203831081       14.2878234784       25.5082088600
  C         0.0101085640       12.5959551940       26.7312021863
  H         3.8287493241       12.5726943550       23.2799100817
  H         3.4767429345       13.1549367968       24.8575883068
  C         4.7869482457       14.3673735404       23.8209832751
  C         2.6967992001        9.3441149801       19.9423242235
  C         0.2237066812       11.2755857576       26.8890250215
  H         0.7423254281        9.6235527776       25.7948875195
  C        -0.4402932601       12.9559889121       27.9623771334
  H         5.5610833753       13.9243329615       24.4216105151
  H         4.4530411748       15.2478490527       24.3230311229
  C         5.4041034446       14.7460638863       22.4695840576
  C         2.6709747785        7.9717852670       19.6583407695
  C         3.1074772948       10.2425770518       18.8086170048
  C        -0.1573307327       10.5533773975       28.1769722573
  C        -0.5248848272       11.9058930390       28.8461135603
  S        -0.9161067144       14.4822563338       28.6729918178
  H         6.0447047924       15.5882866873       22.7842094100
  H         4.6912811856       15.0536628806       21.8379778389
  C         6.1398960241       13.5996619405       21.7608265354
  N         2.4957077461        6.9288148254       20.6297304381
  C         3.0092030991        7.4700291402       18.3900673262
  C         3.3978651810        9.6998959843       17.5740188111
  H         3.3233729627       11.2906735219       18.9707829897
  C         0.9015505948        9.8599141755       29.0349702997
  C        -1.4225477853        9.6145260012       28.0153787089
  C        -0.6894129172       12.3462677066       30.1676152743
  C        -1.0404068438       13.6904243194       30.1859209460
  H         7.0697145518       13.3997838383       22.3130898150
  H         5.4818216183       12.7584474726       21.7179880400
  C         6.3941257100       13.9975016283       20.3295189581
  S         2.7274557748        5.5128142018       19.8821145986
  N         3.2446988916        6.0760457898       18.4426016430
  C         3.3368761887        8.2831497341       17.3046851074
  H         3.6303663859       10.3957320516       16.8163388588
  H         1.1294035417        8.9625807111       28.4355321108
  H         0.3953973230        9.4767766463       29.9319180646
  C         2.1629231794       10.6370793383       29.3103238782
  H        -1.2948972750        8.7213748613       27.4589834844
  H        -1.6946697617        9.1763647298       28.9468435829
  C        -2.6883526985       10.3571804534       27.5285620812
  H        -0.6368473066       11.6254909503       30.9569349036
  C        -1.5049150342       14.4390989901       31.4150528579
  H         6.5135609643       15.0205812075       20.1846399699
  H         5.6303278343       13.6800543804       19.7471450545
  C         7.6098643395       13.3046485280       19.7823867322
  C         3.5955456382        7.6650092788       16.0562860848
  H         2.7789014212       10.4735606659       28.4214785601
  H         2.0907846492       11.7468467055       29.3948734844
  C         2.9480496351       10.2707162644       30.6047616500
  H        -2.3741527029       10.8473083608       26.5573439622
  H        -3.0470942693       11.0841636259       28.2351294599
  C        -3.9441827386        9.5223044747       27.1437720476
  C        -1.5487998218       15.8580715639       31.6490509474
  C        -1.6798868967       13.6402221590       32.6383259451
  H         8.4351557603       13.8643042775       20.2460164527
  H         7.8670480186       12.3574998944       20.2900773353
  C         7.8689035784       13.3983993387       18.3029776103
  H         3.5013739888        6.6391492225       16.0679565677
  C         3.8322501988        8.0770307930       14.7636647352
  H         2.6352583096        9.2547769509       30.8245869183
  H         2.5627370454       10.8810003698       31.4146758205
  C         4.5223254651       10.3148199782       30.4611166462
  H        -3.6898661339        9.1834407414       26.1417732197
  H        -3.9833538941        8.5688323474       27.7093465761
  C        -5.2908517470       10.3520754341       26.9985083447
  N        -1.1964469913       16.8055035525       30.6894015795
  C        -1.8564491885       16.3952068837       32.8422047737
  C        -1.9371846193       14.2153003395       33.8907549141
  H        -1.5734743672       12.6003592328       32.4904210656
  H         6.9445523081       13.1572283851       17.7406457015
  H         8.1919371275       14.3882390144       17.9968645089
  H         8.6090068493       12.6630603212       17.9611948408
  S         4.0998703238        9.7263753737       14.2366536224
  C         3.9323797525        7.0735297539       13.6748770440
  H         4.8098004325       11.2030981679       29.8207986277
  H         4.9437024072       10.5541485973       31.4452094636
  C         5.3130430952        9.0715249472       29.9335232851
  H        -5.1217625074       11.2865285292       26.3681998516
  H        -5.5344904939       10.6101433252       28.0410655578
  C        -6.3994786432        9.6645265894       26.3079739301
  S        -1.3430401159       18.2873295369       31.3058953905
  N        -1.8189920916       17.8054865940       32.7842645582
  C        -2.1415738321       15.6618880486       34.0433741693
  H        -2.0556123098       13.5331392479       34.7602453321
  C         4.4077810509        8.9832765789       12.6072789022
  N         4.3197866423        7.6473960893       12.5286852563
  O         3.8665821690        5.8272459996       13.8718934858
  H         6.2783390166        9.5144798013       29.7700651352
  H         4.9203004437        8.7584471882       28.9551629968
  C         5.3360510910        7.8799832195       30.8898890172
  H        -6.0185665578        8.9859797640       25.6027392762
  H        -7.0492923024        9.1002286790       27.0333971311
  C        -7.3423095497       10.6396577598       25.5578529201
  C        -2.3711715998       16.4429469835       35.2822088012
  S         4.7051772932        9.9443827653       11.1387679967
  C         4.4168562256        6.9788256466       11.2504762399
  H         6.0609887638        8.1548778904       31.7478855596
  H         4.3237809686        7.7266479019       31.3637766595
  C         5.8202930116        6.6226242906       30.2611867138
  H        -6.9721400607       10.9568747061       24.6322192604
  H        -7.5184330968       11.5058450377       26.1744260330
  C        -8.6996942273        9.9728807597       25.2411645664
  H        -2.0806056498       17.4561739976       35.2680856418
  C        -2.8656542449       15.9104634347       36.4651999870
  H         5.1055409292        7.4375918550       10.5267437688
  H         4.8640089073        5.9856048760       11.4033571129
  C         2.9894121012        6.7728881749       10.6280985134
  H         6.5444189136        7.0343218500       29.4860268954
  H         5.0508658761        6.0884444012       29.6615753743
  C         6.7142143418        5.7685706206       31.0758989923
  H        -9.0227921470       10.5315717613       24.3079429911
  H        -8.4381515962        8.9808851490       24.8952980490
  C        -9.7273904447       10.1245117371       26.3623366569
  S        -3.4406991501       14.3442439038       36.8307861046
  C        -2.8135113341       16.8881161784       37.6097356307
  H         2.3740714349        7.6429420256       10.4391120743
  H         3.1545291139        6.2248014412        9.7130612963
  H         2.4104124737        6.1028143287       11.2136515423
  H         7.4188933105        5.3025882742       30.3967116283
  H         6.1611892289        4.9285040160       31.5640767157
  H         7.3052923444        6.3036697494       31.9096948677
  H       -10.0637242567       11.1853530293       26.4603160392
  H        -9.1689129064        9.8185277094       27.2481997026
  H       -10.5616449402        9.4517805788       26.1412408169
  C        -3.8725373322       14.9408222431       38.4249445997
  N        -3.5168464182       16.2710568337       38.5994096639
  O        -2.5986553616       18.0742885833       37.5194748861
  S        -4.6927620696       14.0241790092       39.6583945032
  C        -3.8459091068       17.0115039742       39.8298169127
  H        -3.8590818979       18.1322954842       39.6948225031
  H        -4.8087434932       16.6718380346       40.2098114057
  C        -2.7456478423       16.8799995797       40.8569881357
  H        -3.2470432073       16.9473712453       41.8560900180
  H        -2.1541076997       15.9656775025       40.7564731665
  H        -2.0817951749       17.7397942662       40.8189310288
  H         7.4259124822       10.7261331277        3.7367982121
  C         8.2324583632        9.9784089295        3.6553720676
  H         7.7068410789        9.0563391047        3.8161623634
  C         9.2321143385       10.2099935951        4.8536554091
  C         8.9336838425        9.9865436891        2.2586110022
  C         8.4114677328       10.5702099551        6.1173369064
  H         9.8062937545        9.3385720645        5.1224484486
  H         9.9443803498       11.0000439957        4.6276150002
  H         9.6518908510       10.8115782757        2.0996301834
  H         8.1178507889       10.1939439831        1.6128126868
  H         9.4199392171        8.9791711142        2.0942567217
  C         7.6996567304        9.3826194796        6.8117672341
  H         9.0477568749       11.0681807035        6.8199758643
  H         7.5575735290       11.2141773563        5.8428013717
  C         6.8178931445        9.8164772767        8.0077783973
  H         8.4511518688        8.6780902034        7.1399767925
  H         7.2235571368        8.6975856665        6.0713755896
  C         5.5623873970       10.6140455119        7.6525946771
  H         7.4421891234       10.3686615010        8.7677388881
  H         6.5399645070        8.9482116467        8.5897752774
  C         4.4453329903        9.8076522126        7.0172968917
  H         5.2825487064       11.0728026825        8.6199852719
  H         5.8929997963       11.4194355081        7.1101690384
  C         3.1131832145       10.6109885694        6.8318266029
  H         4.1959725597        8.9043834155        7.5932773884
  H         4.6724431699        9.4026745907        5.9936144402
  C         3.4919513129       11.9063029937        6.1550355674
  C         2.7861343106       11.2052911787        8.0807881720
  C         2.0488391893        9.9250790553        6.0199525389
  C         3.1875458611       12.9979307423        6.9731495515
  C         3.9779958904       12.2098470478        4.8976664365
  C         2.7738499076       12.5310386392        8.2397997053
  C         2.2387385709       10.5619054992        9.1950864133
  H         2.4229705215        9.7976264324        4.9801319459
  H         1.8844394531        8.8707325260        6.4589803313
  C         0.7155715405       10.6468182753        6.0084829286
  S         3.4814512464       14.4753934987        6.1883057059
  C         4.0359799721       13.5970603636        4.7674187041
  H         4.1900332094       11.4271011714        4.1894289501
  C         2.2932921480       13.0655733451        9.4177240385
  H         2.1516113150        9.4875649173        9.0692638754
  C         1.6774425053       11.0879296722       10.3410051163
  H         0.9673076346       11.5778179977        5.4912192593
  H         0.2633884788       10.9958606311        6.9621034741
  C        -0.3907690461       10.0697692510        5.0576529090
  C         4.5307667669       14.3933525357        3.5376225588
  C         1.7265921510       12.4279577630       10.4932335722
  H         2.3084874014       14.1587262810        9.4959265770
  C         1.1989172415       10.5965850795       11.5923671744
  H        -1.2750463310       10.7724505049        5.0315559073
  H        -0.7780237645        9.0854903272        5.3155721029
  C        -0.0040393800       10.1504243079        3.5462628127
  C         4.5039199489       15.8337379342        3.3543477121
  C         4.9011342372       13.6016754027        2.3349103945
  C         1.2560016786       13.0485648696       11.7983634739
  C         0.9273059217       11.6828157769       12.4469008620
  S         0.9205989502        9.0409002443       12.3467338346
  H         0.6706449354        9.3313199830        3.5096851099
  H         0.4397210031       11.1061784885        3.2098669048
  C        -1.1776331544        9.8176445030        2.6830701870
  N         4.1825034573       16.8423048213        4.2926036950
  C         4.7563876782       16.4233097575        2.1188662012
  C         5.3351059650       14.2417707078        1.1471776090
  H         4.9744091839       12.5267918082        2.3761812329
  C         0.0851259288       14.0285644105       11.5611561902
  C         2.5968909766       13.6586570876       12.3771391349
  C         0.4398668328       11.2824973037       13.6995940165
  C         0.4592074818        9.8992007941       13.8499785078
  H        -1.8881100507        9.1744521784        3.2546545549
  H        -1.7914299156       10.7215896820        2.4873041811
  C        -0.8309128285        9.1151479379        1.3005189731
  S         4.2382794585       18.2799823836        3.6299281739
  N         4.7881611234       17.7681989223        2.1941158863
  C         5.2244360439       15.7288055700        1.0232174484
  H         5.7302379968       13.5798247701        0.4305373264
  H         0.3865897073       14.8078083009       10.8062135123
  H        -0.1880119138       14.5821695893       12.4638153148
  C        -1.2373662581       13.4637591978       11.1099750272
  H         3.4569891255       13.3408018931       11.7923334821
  H         2.6101179083       14.7061997665       12.1580765703
  C         2.7550334944       13.5203009189       13.8504618842
  H         0.0599113873       12.0438831319       14.4387106961
  C         0.2809300035        9.1515782885       15.1574146664
  H        -1.6724854464        8.5804556178        0.8199973595
  H        -0.1730390125        8.3135857889        1.5422042017
  C        -0.1656103270       10.1130398545        0.3623587518
  C         5.4616359535       16.4363744442       -0.2174929080
  H        -0.9609661240       12.9595322359       10.1856529837
  H        -1.5100103263       12.5857098345       11.7703014724
  C        -2.4819757558       14.3411139892       10.9571050714
  H         2.7217792850       12.5008595517       14.1521308484
  H         1.9354275623       13.9655921933       14.3548838513
  C         3.9402457530       14.2427238192       14.4754421409
  C         0.3340135740        7.7722479947       15.3009722659
  C        -0.0129065615        9.9615729085       16.3715879760
  H         0.0699580235       11.0719298429        0.7705486645
  H         0.8430417780        9.6964855637        0.1765608070
  C        -0.8670125892       10.0989984109       -0.9838615277
  H         5.2647105761       17.4751125226       -0.1700394750
  C         5.6781200268       16.0035640308       -1.4662021362
  H        -2.1652361561       15.2028557902       10.3333466856
  H        -2.8762281261       14.7053573522       11.8771942655
  C        -3.5635715767       13.4377597954       10.2972134449
  H         3.8163422837       15.2740205049       14.3493923599
  H         3.7688553313       13.9929217443       15.4625075892
  C         5.3190205880       13.6920989106       14.1280177825
  N         0.8116229062        6.8564649574       14.3453658880
  C         0.1073903493        7.1888472799       16.5268732788
  C        -0.1592361816        9.3899594606       17.6031420735
  H        -0.0425785671       11.0370153447       16.3183224800
  H        -1.9325952794       10.3447907486       -0.8546381365
  H        -0.6858810825        9.0811341665       -1.3346240353
  H        -0.3002440312       10.6734325899       -1.6572457463
  S         5.8405432728       14.3703782168       -2.0443831961
  C         5.7103814346       16.9523404380       -2.5643772717
  H        -3.1314783818       12.7511945935        9.5350594861
  H        -3.9408456990       12.7420084255       11.0675899289
  C        -4.7558551277       14.2097735288        9.6351750637
  H         5.2313127360       13.3023601478       13.0766816443
  H         5.5406145751       12.8084695149       14.7841374944
  C         6.3620892825       14.7967273171       14.0282750671
  S         0.8623612026        5.3830893860       14.9096617783
  N         0.4154083137        5.8001557447       16.4897991273
  C        -0.1869964754        7.8528786212       17.7036564170
  H        -0.3042753933       10.0194081612       18.4240948075
  C         5.9819011413       15.0022448902       -3.6442697713
  N         5.9474949954       16.3259872378       -3.7271631747
  O         5.4792429041       18.1488575290       -2.4703418780
  H        -5.3139033252       14.8247862924       10.3427394064
  H        -4.3726842566       14.8140891020        8.8391334339
  C        -5.6872004657       13.2347294155        9.1110089583
  H         7.3811571198       14.4944872301       13.7661157178
  H         6.1015593361       15.4904682265       13.2529443557
  C         6.4532551998       15.5737808792       15.3746128851
  C        -0.4031883270        7.1394458422       18.9397248516
  S         6.5205772170       13.9433455510       -4.9521901277
  C         5.6563219623       16.9113696758       -5.0345020771
  H        -5.2008107108       12.8005017142        8.2012839017
  H        -5.7381493803       12.4230211826        9.8958427153
  C        -7.1116912713       13.6615127532        8.8519806427
  H         6.4793727622       14.9777132859       16.2715444607
  H         5.5042832328       16.1519577743       15.6136126226
  C         7.5344176990       16.7162325082       15.3930490393
  H        -0.1588051509        6.0959952093       18.8359103153
  C        -0.9974834384        7.6031695788       20.0913858786
  H         6.4202285863       16.5573893160       -5.7517526692
  H         5.9060190414       17.9755186018       -5.0722914499
  C         4.2607301416       16.7448558412       -5.5806219790
  H        -7.5811836188       13.1746237358        8.0056612177
  H        -7.1761102459       14.6975547954        8.5076616553
  C        -8.0084906392       13.4182387213       10.0928473382
  H         7.0884294309       17.4067552331       16.0647644957
  H         8.3348254506       16.3357688640       15.8692212280
  C         7.7578584769       17.4523100496       14.0672508430
  S        -1.3959890969        9.2162625009       20.4881848785
  C        -1.2049993003        6.5572698632       21.1911880693
  H         3.4516612974       17.3003085611       -4.9619372991
  H         3.9547006892       15.7532396078       -5.6990262222
  H         4.2051042357       17.2552011017       -6.6036319691
  H        -8.9907244522       14.0143638719       10.0028782194
  H        -8.2255264380       12.4207816181       10.4412663227
  H        -7.4256481366       13.8953067786       10.9529736459
  H         6.8885911101       17.5742697681       13.4138933839
  H         8.2204674095       18.4119422344       14.2131526742
  H         8.4600879661       16.8458373576       13.5968585044
  C        -1.8649659259        8.5142037068       22.0449875905
  N        -1.8207711037        7.1936439039       22.2035126862
  O        -0.9514447659        5.3798323680       21.1281967702
  S        -2.5396107740        9.4560726917       23.2889951845
  C        -2.2194993950        6.4177282750       23.3433368810
  H        -2.3501333224        5.3431372195       23.1293400324
  H        -3.1842114903        6.7837058540       23.7257121172
  C        -1.1553066170        6.6149335680       24.4496857486
  H        -1.0722476056        5.7378011711       25.0635684432
  H        -1.5443402271        7.4830723265       25.1232492769
  H        -0.1851624070        6.9798791656       24.0752318259
