352
i =
  H        -2.0003543235       14.8559769941       14.6234851996
  C        -2.5492597035       14.4783787916       15.4623457129
  H        -3.3332745505       15.1930690972       15.7183127554
  C        -1.6257160904       14.5241647749       16.7151266221
  C        -3.0151446882       13.0318554441       15.1274673604
  C        -2.3202651872       14.2020370957       18.0950538339
  H        -0.7787976825       13.8931931503       16.4755517973
  H        -1.3089012791       15.5091428244       16.7436246476
  H        -3.9778503455       12.9737142320       14.5700892527
  H        -2.2660988866       12.6623490117       14.4582725637
  H        -3.0943878262       12.3577742580       15.9838966222
  C        -1.3874174048       14.2525696135       19.3718364046
  H        -2.6699936733       13.1660684531       18.0562770651
  H        -3.2034145872       14.8061201536       18.2611301602
  C        -2.1793272606       13.9352849397       20.6862478525
  H        -0.5454392232       13.5505514011       19.3470566598
  H        -0.7913431198       15.1555211538       19.3085882498
  C        -1.4488619602       13.2655710679       21.7894867340
  H        -2.9855521384       13.4284812252       20.5460479569
  H        -2.6419801963       14.8449618814       21.0691532052
  C        -0.1727533398       14.0916313852       22.2667066156
  H        -1.9960229918       13.0469557727       22.6801088559
  H        -1.1140755628       12.3853445171       21.3082153627
  C         0.9404228488       13.3570071621       23.0321263734
  H         0.2442567256       14.4934080280       21.3891054531
  H        -0.4229660626       14.9940737173       22.9126286328
  C         1.2590032463       11.9752558292       22.4705566825
  C         0.3973073859       12.6214018870       24.2455733439
  C         2.1459218802       14.2660199571       23.3123574174
  C         0.8269571264       10.9094935664       23.1493886731
  C         1.9023298126       11.5800293659       21.3435550562
  C         0.3125422117       11.2945493858       24.3848655985
  C        -0.1389371297       13.3484427647       25.2790629393
  H         2.3550148956       14.8218530245       22.3934867537
  H         1.9065363495       15.0381216857       24.0330634966
  C         3.3708665355       13.4506941438       23.7137520637
  S         1.2481413303        9.3349199086       22.4802097988
  C         1.9930926339       10.2193277417       21.1526068882
  H         2.2896365778       12.3079506509       20.7064311912
  C        -0.1791705078       10.7650170314       25.6081388578
  H        -0.0100172997       14.4456311324       25.2424558322
  C        -0.6579669467       12.8646403017       26.4511039912
  H         3.5975575223       12.7370133493       22.9206311555
  H         3.0571528297       12.8614797728       24.5706103359
  C         4.4772327257       14.3309871642       24.2081087502
  C         2.5590671060        9.5204203696       19.9381383868
  C        -0.7170281233       11.5062134943       26.6068846272
  H        -0.0544787615        9.7452726461       25.7618613050
  C        -1.0195214936       13.3235271003       27.7130129776
  H         4.9683013014       13.5966730966       24.9284444467
  H         4.0102180438       15.1332556983       24.7944272468
  C         5.5701385109       14.7627542326       23.1924523383
  C         2.4186931640        8.1798952033       19.6797301457
  C         3.0085661273       10.4105345103       18.8042207145
  C        -1.0971191108       10.9247756771       27.9102629727
  C        -1.3503559422       12.2949660394       28.5385559937
  S        -1.1393885974       14.8337763615       28.5332043408
  H         6.4052790691       15.3965356944       23.6147148391
  H         5.0383161028       15.4799206042       22.5023195921
  C         6.2108992693       13.5966852307       22.3450944163
  N         1.9037237250        7.2070428114       20.5766731524
  C         2.6096617082        7.5927063092       18.4311461389
  C         3.3680240602        9.8136463327       17.6659173868
  H         3.1887103860       11.5094803571       18.8573508279
  C         0.0638622560       10.1217330208       28.5933499879
  C        -2.3209722046       10.0206437392       27.7729366256
  C        -1.7611576693       12.7421323055       29.7786295651
  C        -1.6063811109       14.0798166065       29.9748521798
  H         7.3756778666       13.3748997153       22.4478428072
  H         5.7336063312       12.6156115034       22.6819501427
  C         5.9113486822       13.7948207129       20.8147337235
  S         1.9472945099        5.7557587193       19.8819528207
  N         2.4192895277        6.2416871832       18.4270550502
  C         3.0558797269        8.3787536533       17.3043422648
  H         3.7383064086       10.3939300668       16.8939404008
  H         0.3279025774        9.4047703350       27.8516330151
  H        -0.3254811482        9.5250586664       29.3936689795
  C         1.2773848546       10.9380957832       29.2083124654
  H        -2.0436764423        9.0417869826       27.3178732138
  H        -2.6909677903        9.7579528073       28.7576512830
  C        -3.5391982087       10.5741315025       27.0363356428
  H        -2.1177030003       11.9832344603       30.5282034410
  C        -1.9212153897       14.8128224814       31.2917872161
  H         5.5205532974       14.7271947480       20.5503719286
  H         5.1163322943       13.0834297961       20.6226226396
  C         7.2109823369       13.4125388434       19.8794918747
  C         3.2880500752        7.7376496264       16.0273265279
  H         1.8620162910       11.4770754109       28.5224988644
  H         0.8172838193       11.5140463308       30.0044378187
  C         2.3025206909       10.0054663149       29.8297941155
  H        -3.3196216530       10.9897088954       26.0169890184
  H        -3.8928521779       11.4703864166       27.5316474457
  C        -4.6057187563        9.5211295801       27.0166012392
  C        -2.0510037373       16.1894122727       31.4252780892
  C        -1.9669757658       14.0342812959       32.5695895472
  H         8.0672244590       14.0653205466       20.0826777545
  H         7.3557022110       12.3094507791       20.0886580307
  C         6.8652883826       13.5070547837       18.3910442252
  H         3.2342429542        6.6429648737       15.9675616544
  C         3.6045278207        8.1578637210       14.6772720008
  H         2.6952773755        9.2856177607       29.0777724779
  H         1.7882741401        9.5280966702       30.6382706230
  C         3.4205206271       10.7146126116       30.4307197837
  H        -4.0639091566        8.6406226120       26.6693192170
  H        -4.9990816121        9.3989547481       28.0221557079
  C        -5.7536314927        9.8670451629       26.0463755166
  N        -1.9403618514       17.1129461971       30.4367009337
  C        -2.2835738973       16.7463162536       32.6599614591
  C        -2.2723363685       14.6031025597       33.8379308820
  H        -1.8170319801       12.8502093609       32.4471370473
  H         7.7363431369       13.3732303647       17.6859502014
  H         6.0464800036       12.8446288860       18.1014614429
  H         6.6176888476       14.5765541304       18.1177917929
  S         3.8322367459        9.7125936150       14.1644821794
  C         3.4266481163        7.1474763963       13.5646368919
  H         3.6028791224       11.5388915309       29.7455740272
  H         3.3117223391       10.9392489927       31.4636834361
  C         4.6869456014        9.9631247319       30.1882208094
  H        -5.7073881548        9.0657988005       25.3705047336
  H        -5.4122333251       10.8082872294       25.4948935536
  C        -7.1213953084       10.1282506627       26.6065379622
  S        -2.0992352066       18.5743327951       31.0184555532
  N        -2.4570355241       18.1306681702       32.5359914612
  C        -2.4868573637       16.0548544945       33.8629550635
  H        -2.4520492509       14.0038404046       34.7412462440
  C         4.0039735685        9.0574320751       12.5321566040
  N         3.7694254237        7.7240206700       12.3968405572
  O         3.2594904831        5.9817243584       13.8185302405
  H         5.5669106579       10.5074487893       30.3795015675
  H         4.7645313150        9.9442770484       29.1028945784
  C         4.8500728486        8.5449918357       30.8896759426
  H        -7.3407858933        9.2918458819       27.2943045767
  H        -7.0442311584       11.0890898829       27.1338872997
  C        -8.1556970079       10.1415926774       25.5095312062
  C        -2.8741056102       16.8553505128       34.9870306137
  S         4.3448988664       10.0033713094       11.0132228180
  C         3.6298808143        6.9836008766       11.1261825624
  H         4.2597545615        8.4594487083       31.8090413005
  H         4.4303291598        7.8498125705       30.1626916803
  C         6.3492669629        8.0991861697       31.1158427206
  H        -7.8238783903        9.3196180273       24.8561059680
  H        -8.0891220270       10.9934022662       24.8299806631
  C        -9.5911719116        9.8278121488       26.0296723406
  H        -2.6499874209       17.9392322781       34.9720764331
  C        -3.3569296823       16.4053449799       36.2378789717
  H         4.4008502875        7.3333084953       10.5171264377
  H         3.8259435606        5.9360066007       11.3876716207
  C         2.2250705741        7.1079979124       10.5620495099
  H         6.4474687052        7.1994613247       31.7150009659
  H         6.9290784059        8.8757986045       31.6087385829
  C         7.0696815690        7.9931912087       29.7999125219
  H       -10.3126870571        9.7588685839       25.1189986102
  H        -9.6395982972        8.7908062922       26.3786847791
  C       -10.0286796547       10.8327435588       27.0226639252
  S        -3.8913803212       14.6966381259       36.5805014864
  C        -3.4860270638       17.4202211575       37.2582747328
  H         2.1479851310        6.7432840291        9.5041743577
  H         1.4097965608        6.5282748434       11.0590377556
  H         1.8817894531        8.0991256988       10.3557227475
  H         7.8785681040        7.2684625294       29.8852055709
  H         7.4983206385        8.9146333763       29.4422369627
  H         6.4753906740        7.6483042547       28.9188561305
  H        -9.7662240719       10.4875553045       27.9681401902
  H       -11.1073001010       10.8981452158       27.0208172630
  H        -9.7681441808       11.8413689337       26.9054951489
  C        -4.3088384193       15.4565800131       38.1749173474
  N        -3.9850782059       16.7614162734       38.3675848714
  O        -3.1108383669       18.5365382247       37.1789223210
  S        -4.8890513794       14.5616712801       39.5269838683
  C        -3.9148338196       17.5458388755       39.6017963983
  H        -4.0314088467       18.6420920772       39.3307253003
  H        -4.5969154240       17.0927606313       40.3342662744
  C        -2.5098433599       17.2871639079       40.1412342175
  H        -2.2263183693       18.3277081948       40.4539253811
  H        -2.3968482619       16.7407928216       41.0464848134
  H        -1.8026022161       16.9790804256       39.4258792311
  H         7.6227840914       11.3812569605        3.6425689818
  C         8.1919823087       10.4683574455        3.6107746714
  H         7.3091689312        9.8193793141        3.4887351303
  C         8.7767339316       10.3715498844        5.0344982337
  C         9.1783849406       10.1929814369        2.5145043579
  C         7.7990647878       10.8121530951        6.1135525772
  H         9.0912793277        9.3452468449        5.1897401070
  H         9.6654370254       10.9579625085        5.0514370817
  H         9.9903823519        9.4550886697        2.7621719046
  H         9.7016734333       11.0710786040        2.3196226373
  H         8.6093766232        9.9104489651        1.6044847864
  C         6.9654303932        9.5564833832        6.4810198089
  H         8.2807871848       11.1662903940        6.9832917647
  H         7.1005263920       11.5251890490        5.7256062739
  C         6.1876723928        9.7632388332        7.8517966881
  H         7.5111114512        8.5916620322        6.6382604125
  H         6.3521834644        9.2416254761        5.6036137057
  C         5.0054466478       10.7842869854        7.6719354073
  H         6.9215608368       10.0774967705        8.7077166836
  H         5.7748652726        8.7100991988        8.2568987724
  C         3.7956001479       10.0911928418        6.9833549353
  H         4.6124545961       11.2204207929        8.5814265277
  H         5.3655300709       11.6955816404        7.1044073849
  C         2.5340886999       10.9290532318        6.8159871921
  H         3.5615110978        9.0694476176        7.4130013774
  H         4.3281751139        9.8930814137        6.0356117365
  C         2.8499931826       12.3280856696        6.2369772054
  C         2.0867905332       11.6319125538        8.0894753330
  C         1.4266084432       10.2186941837        6.0236127119
  C         2.6319518899       13.3951127414        7.0638771070
  C         3.5673936499       12.6418725418        5.1048424375
  C         2.0082189782       12.9885185687        8.2246365355
  C         1.6477775968       11.0889426268        9.3087233997
  H         1.7741393022        9.8312273206        5.1142661720
  H         0.9809125939        9.4513650294        6.6172306549
  C         0.1583834341       11.0260729787        5.7549154764
  S         3.0418757634       14.8486282848        6.3682476999
  C         3.5869223337       13.9895946526        5.0146739456
  H         3.8266391378       11.9491170883        4.3729117788
  C         1.6195248522       13.5887106785        9.3228142115
  H         1.7382241042       10.0415875651        9.3456494373
  C         1.2350450558       11.6649608715       10.4946688289
  H         0.5126430545       12.0181237500        5.4857140412
  H        -0.5054457337       11.1574706524        6.5889750979
  C        -0.7409233226       10.4643249148        4.7305428481
  C         4.1429130608       14.6422749351        3.7789778294
  C         1.1696028439       12.9738074546       10.4923375517
  H         1.5605186960       14.6921627948        9.3526020183
  C         0.8374800955       11.1568092498       11.6815462942
  H        -1.6920262305       10.7137864246        5.1045983803
  H        -0.6608183796        9.3616891539        4.8202015737
  C        -0.6434806975       10.8695927013        3.2231924417
  C         4.1904445947       16.0193864119        3.4889986181
  C         4.8156713959       13.7997695978        2.7403555888
  C         0.7881675532       13.6325510598       11.8175672542
  C         0.5144446691       12.2138405490       12.4979320007
  S         0.5878767878        9.6301007375       12.4563995620
  H         0.2918453762       11.4980289502        3.0219291787
  H        -1.5249032092       11.5372606018        2.8760467488
  C        -0.6521474869        9.5656621790        2.3675489211
  N         3.8001706181       16.9931743459        4.3945716914
  C         4.4434555239       16.5291934459        2.2229190593
  C         5.0602811745       14.2799243197        1.4988434963
  H         4.9765795403       12.7424392342        2.7696388150
  C        -0.4146048495       14.5195834692       11.6460836440
  C         1.9268626655       14.4286999595       12.5564284939
  C         0.1901726111       11.8058880898       13.7916912539
  C         0.3106098231       10.4782652612       13.9163054428
  H         0.0617104044        8.8242173899        2.6973391625
  H        -1.6213620321        9.1846866093        2.2950866229
  C        -0.2110578306        9.9309163249        0.9396300572
  S         3.8173884450       18.4574917788        3.5957268890
  N         4.4892223421       17.9306159575        2.1820348286
  C         4.7662845762       15.7602081846        1.1298662412
  H         5.5231199228       13.5772959490        0.7807659651
  H        -0.3179254756       15.3703717458       11.0852292686
  H        -0.6280645290       14.9872118638       12.6555284139
  C        -1.6015299337       13.8575275770       11.2211170984
  H         2.0599056758       15.3986876488       12.0935780606
  H         1.6672480621       14.7938274826       13.5504034536
  C         3.2489630810       13.7416698660       12.7704170097
  H         0.1109750899       12.5072529063       14.5735053657
  C         0.0533822339        9.7990196821       15.2524035747
  H         0.3033298990        9.0548220627        0.5084989319
  H         0.5184773784       10.6380016395        0.8547188889
  C        -1.3507757710       10.2578463132        0.0606341035
  C         4.9509593134       16.3272585920       -0.1913028913
  H        -1.5039662275       13.7856686368       10.1240439784
  H        -1.6630508684       12.8784020334       11.6423828729
  C        -2.8354776573       14.7154520777       11.5228116676
  H         3.5204344273       13.2509368593       11.8554300935
  H         3.0188302613       12.8760438286       13.5328179697
  C         4.3998434082       14.6174327040       13.2809195498
  C         0.0659180467        8.3697283737       15.5048776152
  C        -0.1795620826       10.5444372904       16.5108952859
  H        -2.1301981349        9.5142529906        0.0722302616
  H        -1.8008809323       11.1607617895        0.4017641418
  C        -1.0897602229       10.4700975571       -1.3866448766
  H         4.9088132175       17.3652041010       -0.2631244776
  C         5.2179568869       15.7899194492       -1.4354754549
  H        -2.8244784851       15.5579739208       10.8866170096
  H        -2.9135936950       14.9753753763       12.5512698746
  C        -4.1102232335       13.9412345615       11.1740944014
  H         4.8159832405       15.2513820945       12.5062934157
  H         3.8956071624       15.2772220452       13.9409228547
  C         5.4292478773       13.9401678457       14.0688878856
  N         0.1659035050        7.4020933573       14.4797300888
  C        -0.1837691371        7.7646773785       16.7572333505
  C        -0.5129722104        9.9831925168       17.7316711421
  H        -0.1789773357       11.5295373521       16.4236746827
  H        -2.0727048109       10.2780540703       -1.8491541771
  H        -0.4026027073        9.5850864129       -1.6015992155
  H        -0.6817085880       11.5033616818       -1.4977806999
  S         5.2533498220       14.0645508315       -1.8473749552
  C         5.4425381990       16.7193504676       -2.5774909774
  H        -3.9105164292       12.8540267266       11.2267579571
  H        -4.7663169520       14.2852126403       11.9088866142
  C        -4.6645214723       14.2093033210        9.8349460006
  H         5.3919319468       12.9420554689       13.7985657964
  H         5.1629736777       13.9951249738       15.1677350327
  C         6.7908164400       14.2337784356       13.6185726336
  S         0.0976292471        5.9106092906       15.1855515273
  N        -0.2245486173        6.3907373166       16.6787225209
  C        -0.5707895494        8.5217850424       17.8973560350
  H        -0.7044121139       10.6072607492       18.5781306723
  C         5.7219573102       14.6591327987       -3.4347497759
  N         5.8263311901       15.9610191030       -3.6748135506
  O         5.4620915965       17.9465591934       -2.5254127040
  H        -5.2192768439       15.1345188078        9.9233922655
  H        -3.8154976165       14.3989944305        9.2483736408
  C        -5.5165901697       13.1834356052        9.1591224773
  H         7.3775305639       13.3125431083       13.5944706216
  H         6.6951711957       14.4504726579       12.5487379293
  C         7.5462030582       15.2380614199       14.4558406422
  C        -0.9179035774        7.7445215925       19.0542463207
  S         6.2130956135       13.4935323639       -4.6705012421
  C         6.0932877974       16.6107452729       -4.8776568911
  H        -4.9888467333       12.7804318100        8.2747318371
  H        -5.4736943635       12.4142855636        9.9152256714
  C        -6.9210545498       13.6493619633        8.8868152064
  H         8.6140935739       15.0348082320       14.4667994718
  H         7.2351246561       15.0804965466       15.5033547916
  C         7.2052724328       16.6863579192       14.0860905240
  H        -0.6395071074        6.7217386904       19.0199169625
  C        -1.4577411177        8.1276294674       20.2596521879
  H         6.6842033957       16.0058251398       -5.5473564707
  H         6.5665395204       17.5832907498       -4.6406362235
  C         4.8383547485       17.0419387274       -5.5765943012
  H        -7.3067121762       13.0848656217        8.0508471304
  H        -6.9331703974       14.6743570539        8.4954183055
  C        -7.8128882697       13.4954357282       10.0388747334
  H         7.7730852903       16.8208925971       13.1722332425
  H         6.1677029915       16.8425030635       13.8270930592
  C         7.5869550368       17.7589081642       15.0743070775
  S        -2.1837695522        9.6486543508       20.6178064522
  C        -1.4686368702        7.0816287685       21.3533580878
  H         4.5719672823       16.3563117931       -6.3635210988
  H         5.0775642053       18.0281769738       -5.8755309513
  H         3.9201983135       17.0850947390       -4.8806743221
  H        -8.0046197603       14.5197234343       10.5714925239
  H        -8.7842376252       13.2123871366        9.7818878610
  H        -7.4351458808       12.7665320725       10.6563707991
  H         7.8526363428       17.2688642138       16.0542247438
  H         8.4215866027       18.3710160657       14.6476632364
  H         6.5948110221       18.2454152081       15.2268093948
  C        -2.2586098646        9.0249999379       22.3136895869
  N        -2.0771873583        7.6768550143       22.3797001042
  O        -1.2328486162        5.8805130841       21.2776590659
  S        -3.2368777982        9.7617129756       23.6602801029
  C        -2.3248128210        6.9292198878       23.6104026019
  H        -2.4799131454        5.8764401992       23.4355102474
  H        -3.2982079030        7.2536351230       24.1153498746
  C        -1.2222389184        7.1051444486       24.6147813952
  H        -0.3471047069        7.6559873094       24.2012879940
  H        -1.0315568068        6.1117859335       24.9247817628
  H        -1.6626751690        7.6503795904       25.4846551024
