352
i =
  H        -3.9530361162       14.6640081120       16.3007254954
  C        -3.4283447489       13.7078446314       16.4496033342
  H        -4.2685564118       13.0070183298       16.6700498599
  C        -2.3857206390       13.6888792885       17.5431893978
  C        -2.7366137164       13.3100393073       15.0563038828
  C        -2.9005896162       14.1663664481       18.9065919789
  H        -1.9440140294       12.7505077654       17.7893675289
  H        -1.5816696837       14.3908554952       17.1712457063
  H        -2.5342355072       12.2120253514       15.0350424139
  H        -3.4058294341       13.5672578223       14.2261864767
  H        -1.7747253665       13.7645742283       14.8980726500
  C        -1.8304895802       14.2216708269       20.0469031551
  H        -3.6653621547       13.3914776863       19.1427970221
  H        -3.4915472917       15.0162012024       18.7970131570
  C        -2.2975704908       13.8317538206       21.4563271627
  H        -0.9548713842       13.6875693007       19.7512226183
  H        -1.4281425713       15.1924606632       20.0674645645
  C        -1.3045449137       12.9258930938       22.1403957395
  H        -3.2423846254       13.3838400643       21.5311613037
  H        -2.4981339493       14.7084368695       22.0545443897
  C        -0.1019005535       13.7616074355       22.6418992278
  H        -1.8600365273       12.3741975753       22.8928614300
  H        -1.0691326366       12.2256782620       21.3126160650
  C         0.9573465992       13.0022968879       23.4939209262
  H         0.3372114121       14.2283015006       21.8217197162
  H        -0.3196114819       14.5608206117       23.3477146883
  C         1.2927360933       11.6520034520       22.7520808524
  C         0.4461330643       12.3069763767       24.7121404786
  C         2.2100498337       13.9078973566       23.7412219308
  C         1.1041393889       10.5771044803       23.5400124654
  C         1.8469172004       11.3341878892       21.5043679754
  C         0.4841407309       10.8986336233       24.7764805887
  C        -0.1372787251       12.9086460446       25.8595989935
  H         2.4632830366       14.3069176114       22.8096887730
  H         1.9526858159       14.7610164604       24.3651112543
  C         3.4463823669       13.1600143399       24.3932758080
  S         1.5119074293        9.1256931013       22.8019593419
  C         2.0801045907       10.0032819625       21.4250311262
  H         2.1233140743       12.0660330683       20.7810881418
  C         0.0404417827       10.2491791884       25.9144845544
  H        -0.1664433194       13.9935303156       25.7633056751
  C        -0.5180283606       12.3008214824       27.0234580947
  H         3.6826314411       12.3309703974       23.7651078066
  H         3.1172986004       12.7035660962       25.2900216945
  C         4.6518251171       14.0642230212       24.6049100877
  C         2.5084503727        9.3758624613       20.1204848271
  C        -0.4450689678       10.9267899610       27.0685369388
  H         0.2862833648        9.1736281606       25.9597765176
  C        -0.9637581945       12.7219883019       28.2969883210
  H         5.4232152381       13.4131783826       25.0418401418
  H         4.5399865111       14.9301413551       25.2139912324
  C         5.2921138427       14.4880108461       23.3039146911
  C         2.5950290462        7.9731793752       19.8450023494
  C         2.8347213019       10.2318493190       18.9374642479
  C        -0.9332546748       10.2921690796       28.3648884869
  C        -1.1153457425       11.6426401282       29.1500631925
  S        -1.1385264804       14.2217241151       29.1141025730
  H         6.2227710123       15.0205048160       23.5612399690
  H         4.8558963913       15.2696465908       22.7332038382
  C         5.8297213009       13.4858251476       22.3389243544
  N         2.3300447076        6.9947071921       20.8339680509
  C         2.9357716842        7.4413723405       18.5861287807
  C         3.0350631603        9.7086041651       17.6783392605
  H         2.6125652132       11.2553951382       18.8935985183
  C         0.1287455145        9.3731304550       29.0348731972
  C        -2.1924283751        9.5700584732       28.2092286074
  C        -1.4135136796       12.0790145237       30.4526707533
  C        -1.4083009155       13.4151763413       30.5656602706
  H         6.8241910222       13.6392485501       21.9432148574
  H         5.8905604962       12.5934021610       22.9199658135
  C         4.9810233517       13.2853882351       21.1229656955
  S         2.4899157772        5.5549288351       20.0586919496
  N         2.8029435659        6.0655660226       18.6180756251
  C         3.1530784019        8.2528254628       17.4488558111
  H         3.1027778992       10.3996202807       16.8200403638
  H         0.5313007286        8.7403146758       28.2177279853
  H        -0.3295647172        8.6243554673       29.6863577106
  C         1.4570726949        9.9764666681       29.7432627891
  H        -1.9562640090        8.6038198095       27.5517796210
  H        -2.5400380880        9.1672943615       29.1327273855
  C        -3.4174554818       10.3464615457       27.7574286553
  H        -1.4631249193       11.4444729587       31.3402729121
  C        -1.7617874838       14.1405830242       31.8506002054
  H         4.0518469139       13.9365396470       21.1633016560
  H         4.5615515146       12.2720574589       21.2033818594
  C         5.6922752828       13.3867081614       19.8083317816
  C         3.3283490086        7.6143261040       16.2142438609
  H         1.9086022311       10.8134510875       29.1784954181
  H         1.0382292846       10.5362924341       30.5781233529
  C         2.5811131205        8.9380627122       30.1026883453
  H        -3.1489424246       10.8425120759       26.7628675178
  H        -3.7073911318       11.0780303019       28.5069417568
  C        -4.6008758217        9.5356188537       27.4535397454
  C        -1.8198424187       15.5510978319       32.0466202095
  C        -2.2470878831       13.3759461048       33.0472559437
  H         6.0511980715       14.4318750938       19.7289760421
  H         6.5154040703       12.7056735395       19.7196415400
  C         4.6672956365       13.1688328032       18.6179580219
  H         3.2566786718        6.5169633197       16.1872043356
  C         3.6507862335        8.0820792847       14.9330073531
  H         2.8395165897        8.4002167235       29.1769445118
  H         2.2207365857        8.2042746454       30.8220289640
  C         3.8277094159        9.5116030232       30.7867250110
  H        -4.3520622134        8.8378853923       26.6583466251
  H        -4.9372474653        8.9874557089       28.3096600808
  C        -5.7710415827       10.2568763072       26.8508170171
  N        -1.6520740216       16.4486566492       31.0112661278
  C        -2.1003127969       16.1781016324       33.2562317560
  C        -2.4238281871       13.9295542650       34.3543032084
  H        -2.2391929165       12.2958493598       32.9743632686
  H         3.6319827456       13.2363312613       18.9059631019
  H         4.7904449470       13.9223113940       17.8938760052
  H         4.8223946960       12.2073984693       18.2497296895
  S         3.8527495632        9.7704332454       14.4133457745
  C         3.7073268877        7.1091059827       13.8202944174
  H         3.9079626224       10.3783894817       30.2768621797
  H         3.6386360556        9.9219701676       31.8314063361
  C         5.0180089077        8.6596361026       30.5647726511
  H        -5.4252075881       11.0688449255       26.2305099300
  H        -6.2529537116       10.7717935025       27.7102189885
  C        -6.8602162912        9.4977357518       26.0567730527
  S        -1.8432565194       17.9890168967       31.6565725971
  N        -2.0060379343       17.5122608723       33.2111141011
  C        -2.3474403186       15.4173350104       34.4376338522
  H        -2.8064691802       13.2319743106       35.1440217935
  C         4.0639334427        9.0973730272       12.7768383015
  N         4.0484967707        7.7541731625       12.7187278390
  O         3.7066202619        5.8934869457       14.0617048178
  H         5.9153204348        9.1897329152       30.7845973320
  H         5.1715694514        8.2208735988       29.5945662726
  C         4.9302245412        7.2533268359       31.3052725067
  H        -6.2169133527        8.9735382129       25.1905839034
  H        -7.4347674612        8.8124467786       26.6927578971
  C        -7.9555730192       10.4383595676       25.4841969628
  C        -2.6689572790       16.2008819880       35.5958555803
  S         4.6725554803        9.8948091741       11.3493940499
  C         4.1475770150        7.1078233806       11.4181147979
  H         4.2754316187        7.4194824892       32.1219764818
  H         4.5147929700        6.5047238759       30.6283353370
  C         6.2420983839        6.5552701330       31.7627112258
  H        -7.6158031320       10.8929750565       24.5924354077
  H        -8.1635295677       11.2668938824       26.1653216427
  C        -9.1998100359        9.7108407726       25.2396407568
  H        -2.4972606957       17.2351901602       35.5957581353
  C        -3.1887206551       15.9504339790       36.8610085120
  H         5.0046781943        7.4064393784       10.8581599534
  H         4.3529198241        6.0282297563       11.5095147393
  C         2.9002940484        7.2393813497       10.5383537324
  H         5.8594026652        5.7628815476       32.4139141064
  H         6.8694345715        7.2485532296       32.3125050842
  C         7.1119822332        5.7836317467       30.7879914231
  H        -9.5400554861       10.0009766770       24.2289789381
  H        -8.9822819636        8.6581739264       25.1052792245
  C       -10.2554880698        9.9239140029       26.3124136935
  S        -3.6363720425       14.3509972972       37.4325723781
  C        -3.3701361446       17.0023165972       37.8805812500
  H         3.1786952415        7.4469558867        9.5828345335
  H         2.2052128887        6.4294586025       10.5807798305
  H         2.3711985703        8.1873910712       10.8193969747
  H         7.6023391063        4.9681898313       31.3378305418
  H         7.8702957445        6.4446263534       30.3011438881
  H         6.6266407476        5.5548923108       29.8286529456
  H       -10.0142759976        9.4013661487       27.2930281596
  H       -11.2330531181        9.5942142727       26.0488350774
  H       -10.5302284003       10.9262770751       26.6095510649
  C        -4.2695825822       15.2047199454       38.8695527497
  N        -4.0458745732       16.5300699758       38.8850579024
  O        -3.1087253755       18.2184737625       37.8110253798
  S        -4.7672435882       14.4113558892       40.3828939300
  C        -4.1833602218       17.3317799874       40.1092258825
  H        -4.4416264842       18.3844185064       39.8704204006
  H        -5.0568894341       16.8735973526       40.6291060270
  C        -2.8234977832       17.2898601139       40.8147550210
  H        -2.7723205554       16.4455841708       41.4653896247
  H        -2.0112440585       17.2171617350       40.1758037492
  H        -2.6320889610       18.1586882433       41.4377978020
  H         6.9060383869       11.1542263065        3.4516276435
  C         7.6119601118       10.3517054018        3.3110819051
  H         7.2097252888        9.3951304532        3.6212890309
  C         8.7633527840       10.5305868700        4.4432204958
  C         8.1588738017       10.3030505688        1.8280210961
  C         8.0548848305       10.6856298658        5.7442313546
  H         9.3290545195        9.5674541614        4.5902585977
  H         9.3121356175       11.4569420454        4.1545058748
  H         8.3566564444       11.3015567352        1.3883979133
  H         7.6109748071        9.6405832262        1.1467457478
  H         9.1758335782        9.8982466880        1.9310358329
  C         7.1808581332        9.4798113815        6.2365111251
  H         8.8093909476       10.8474647814        6.4775859314
  H         7.4391692076       11.6238805568        5.7495765626
  C         6.6499059563        9.7608433870        7.6400120708
  H         7.8692706548        8.6250842331        6.2298464708
  H         6.3142925481        9.3592182513        5.5184551576
  C         5.3944635826       10.5718459327        7.6115703485
  H         7.3763553589       10.2754242594        8.2507019623
  H         6.5070852788        8.8765619393        8.2368680627
  C         4.0868723108        9.8681089457        7.2771881604
  H         5.3626761452       10.9413868265        8.6576434466
  H         5.5420835423       11.5056832133        6.9999824387
  C         2.8150043483       10.7252451241        7.0908560941
  H         3.8329706494        9.2559374418        8.1577298849
  H         4.3534078916        9.1355823187        6.5567022878
  C         3.1273633995       12.0452977434        6.3606417727
  C         2.4775447545       11.5082415091        8.3747041865
  C         1.6139490478        9.9574918517        6.4834797285
  C         2.9414275929       13.1727242778        7.1509364288
  C         3.7811445524       12.3436597716        5.1557446490
  C         2.4576608801       12.8657586647        8.4160997814
  C         1.9705913508       10.9074200121        9.5273277347
  H         1.8850771197        9.3438663419        5.5684805137
  H         1.2965744719        9.1152604101        7.1306680062
  C         0.3610934318       10.8855544158        6.2061829672
  S         3.4426508410       14.6711680308        6.3294647095
  C         3.9888998333       13.6994943212        4.9837742526
  H         4.1138798924       11.5642261105        4.4835340166
  C         2.0372261604       13.4772503828        9.5748413038
  H         1.8463263869        9.8450543695        9.5656964021
  C         1.5560157288       11.5506312242       10.6364381441
  H         0.6478526855       11.8806240255        5.6993877987
  H        -0.0417718204       10.9434527863        7.1761009264
  C        -0.6270365026       10.2253703267        5.2778924459
  C         4.4624296186       14.4105822385        3.7858186046
  C         1.5676393633       12.8792578171       10.7484977989
  H         2.0334315955       14.5775514421        9.4862261792
  C         1.0863972981       11.1563536709       11.8718105709
  H        -1.4080370204       10.9678757082        5.2801794099
  H        -0.9576737744        9.2128439308        5.6318306731
  C        -0.0506933148       10.2516421389        3.8447303819
  C         4.4565857855       15.7956793015        3.4158063492
  C         5.0042872967       13.6125780045        2.6639995935
  C         1.1100153769       13.5768079000       12.0243902272
  C         0.8179712802       12.2649026237       12.6965294006
  S         0.7643497091        9.6249893626       12.6656431108
  H         0.7095282439        9.5018514663        3.7330946726
  H         0.4034305745       11.2131146077        3.7010439928
  C        -1.1000836705        9.9297596059        2.7253859571
  N         4.1331723046       16.8328845503        4.4067918742
  C         4.6248048395       16.3552831967        2.1927217665
  C         5.2092598431       14.1117540710        1.4118137125
  H         5.1928645540       12.5645773155        2.8155948642
  C        -0.2159794760       14.4774017828       11.9075121231
  C         2.1996789126       14.3128583232       12.8077972894
  C         0.4289598911       11.8145313259       13.9831245025
  C         0.4609649807       10.4661654758       14.1070662576
  H        -1.4427543134        8.9182117575        2.7843471530
  H        -1.9362011513       10.5090480589        2.7537744350
  C        -0.5693050817       10.1127166251        1.3395677967
  S         4.0690811860       18.3002448136        3.6205477711
  N         4.5282417691       17.7805201225        2.1200098064
  C         5.0060431874       15.5813428029        1.1162854524
  H         5.6049873945       13.4406374127        0.6562040705
  H        -0.0518789042       15.2058546148       11.1637127983
  H        -0.4808113962       15.0319819764       12.8232745781
  C        -1.4123785776       13.6639508836       11.4016123018
  H         2.2352319176       15.3021549771       12.3008536096
  H         1.8253926765       14.5926559141       13.8638875310
  C         3.4907038858       13.5518558038       13.1249212007
  H         0.1566725530       12.4671319320       14.7061223919
  C         0.1292835650        9.7060040731       15.3961874697
  H         0.1697464988        9.3355709045        1.0402968698
  H        -0.1441311528       11.1268054596        1.2950136901
  C        -1.6466174792        9.9002111527        0.2874930521
  C         4.9927586122       16.1386390009       -0.1849191657
  H        -1.1872985712       13.0543306350       10.4961288338
  H        -1.8199794799       13.0168781909       12.1740553542
  C        -2.4651210064       14.5450126158       10.8428710621
  H         3.8994329715       13.3017488918       12.1447061303
  H         3.1205684021       12.6079300242       13.5190048045
  C         4.5572628294       14.3818057504       13.9136106256
  C         0.0098218990        8.3156333615       15.5540844190
  C        -0.0358731228       10.4654246760       16.7002544257
  H        -1.9681922788        8.8634733477        0.1485811286
  H        -2.4680848050       10.5183917225        0.4600990549
  C        -1.1416907280       10.3067700136       -1.0798985357
  H         5.0313712785       17.1969094016       -0.1216909155
  C         5.4528714060       15.6582353572       -1.4234572920
  H        -2.1426794832       15.2037997587       10.0345494027
  H        -2.8735003528       15.1028300379       11.6880254234
  C        -3.5490831312       13.7873779250       10.1683736137
  H         4.9344100449       15.0331224965       13.1203680524
  H         4.2030729516       15.0277486509       14.7350715998
  C         5.6434054878       13.4612962568       14.4910864828
  N         0.2863028949        7.3788278319       14.6076001275
  C        -0.2030097909        7.7307698545       16.7959935105
  C        -0.3733735437        9.9072493245       17.9480385613
  H        -0.0157646552       11.5221034152       16.5460451381
  H        -1.7234844383        9.7914465092       -1.8666489545
  H        -0.0821849530       10.2577377238       -1.2457999608
  H        -1.0963866129       11.4197473172       -1.0591385131
  S         5.8804388099       14.0267516989       -1.7678601148
  C         5.3820561017       16.5893403912       -2.5718083088
  H        -3.6517858054       14.2164534280        9.1562211111
  H        -3.2512187624       12.7656772251       10.0487812514
  C        -4.9004959255       13.8941143780       10.9194067403
  H         5.5985316299       12.5090588930       14.0303627757
  H         5.5726901483       13.2426398428       15.5556005869
  C         7.0924089948       13.9041109942       14.2333958646
  S         0.2592105256        5.8857109082       15.2210568579
  N        -0.3280750851        6.3327803260       16.6640938141
  C        -0.4426957123        8.3963193680       17.9861005012
  H        -0.4561680825       10.4294981664       18.8637403359
  C         6.0401724921       14.6209640305       -3.4240471394
  N         5.8636810384       15.9813739446       -3.6207114404
  O         5.1011319396       17.8063838869       -2.4825141464
  H        -4.7584996438       13.7259506307       11.9663055377
  H        -5.3502343752       14.9143351646       10.9014965026
  C        -5.8829420530       12.9898273010       10.2000148208
  H         7.7421392259       13.4973947768       15.0450625308
  H         7.2738530167       13.4518263460       13.2395484684
  C         7.4175480121       15.4013961415       14.1743018792
  C        -0.5677292209        7.5013987420       19.0917364073
  S         6.3569682032       13.5856081308       -4.7879750686
  C         5.9209655718       16.7330901534       -4.9198430109
  H        -5.4176264887       12.1785022598        9.6023006059
  H        -6.5191950630       12.3870514696       10.8826629507
  C        -6.8251878202       13.8402820663        9.3179666868
  H         6.9129024663       15.7832703901       13.2687339637
  H         8.5199558336       15.5713493079       14.0044194158
  C         6.9980120203       16.2459974586       15.2661792854
  H        -0.2076438235        6.5303951635       19.0268906058
  C        -1.1279242601        7.8304864290       20.2648512517
  H         6.6788335510       16.2690289379       -5.5712826398
  H         6.1546671299       17.7424465707       -4.7792598522
  C         4.6055538068       16.6384379368       -5.6566305208
  H        -7.0653005594       13.2236813411        8.4323630460
  H        -6.4794190749       14.6655566217        8.7469921100
  C        -8.1055981632       14.2675885119       10.0257278441
  H         5.9617042784       16.2799459796       15.3808224124
  H         7.6242793624       15.9622089263       16.1110592891
  C         7.3306963599       17.7317239035       15.0090197644
  S        -1.8548050182        9.2596667096       20.7674612731
  C        -1.2345897719        6.6766709130       21.2235162288
  H         4.9701066996       16.8431030805       -6.6943820196
  H         4.0058753752       17.5015989997       -5.3789585320
  H         4.1456503790       15.6914264255       -5.5848770965
  H        -8.6356966417       13.4296399524       10.5228539528
  H        -7.9211513574       15.0252629882       10.7540843499
  H        -8.8378619146       14.6668963407        9.3190110062
  H         8.1255219112       17.8528646331       14.3432804143
  H         6.4474056001       18.2802092083       14.5925332054
  H         7.5397550513       18.2500069460       15.9701360962
  C        -2.1798046058        8.4376125416       22.3039770786
  N        -1.8939079327        7.0711396192       22.3155594144
  O        -0.7003100238        5.5735085629       21.0235562654
  S        -2.7858374085        9.0528727214       23.8318188969
  C        -2.0548038995        6.1414364538       23.4345220909
  H        -2.2360921870        5.1548809664       23.0579512962
  H        -2.9501787290        6.3374364702       23.9555019594
  C        -0.8887143070        6.1997782779       24.3049349045
  H        -0.4099848320        7.1681940111       24.1950581817
  H        -0.0457052708        5.5739266125       23.9074242009
  H        -1.1083385694        5.9332377053       25.3755119850
