352
i =
  H        -3.3988726166       15.1526677555       16.7378830153
  C        -3.2797718187       14.1308562602       16.5460973372
  H        -4.2056610950       13.6506108984       16.7275544989
  C        -2.1847268286       13.6750564205       17.4057354614
  C        -2.7880294466       13.8317346757       15.1319173266
  C        -2.4832868787       14.0093288754       18.8210214191
  H        -1.9458174248       12.6403795308       17.3054714697
  H        -1.2343597859       14.2144992566       17.0853064216
  H        -2.1110296794       14.5927993958       14.8360131561
  H        -2.2885211605       12.9085530097       15.0536063775
  H        -3.6519652188       13.8050137474       14.4308783366
  C        -1.4938809743       13.5378597337       19.9367857688
  H        -3.4943180972       13.6932955370       19.0724552611
  H        -2.5756966527       15.0645145078       18.8426196990
  C        -2.1107377447       13.6724019387       21.3400552928
  H        -1.3268701430       12.4952731212       19.7113984138
  H        -0.3794108905       13.8220609503       19.7880108445
  C        -1.2029255982       13.1287979974       22.4922590346
  H        -2.9755784438       13.0200907504       21.3738519699
  H        -2.2030155105       14.7003055286       21.6672690135
  C         0.1788208503       13.8818909330       22.6267258155
  H        -1.7967020581       13.2434479081       23.4022053624
  H        -0.9659807967       12.0844603731       22.3931477715
  C         1.3164195682       13.1422270256       23.4082220207
  H         0.4583745806       14.1275666707       21.6511547900
  H        -0.0502191889       14.8746369442       23.0913049416
  C         1.7322031131       11.8458668124       22.6909935255
  C         0.7925418265       12.4383480380       24.5568975392
  C         2.5231485635       14.1052833696       23.6501087644
  C         1.4575008044       10.7427440061       23.4844703939
  C         2.3838138774       11.4773857291       21.4700988107
  C         0.8662177575       11.1155157475       24.6795611543
  C         0.2018491157       13.0404756033       25.7005152520
  H         2.7661595423       14.6856591058       22.7301589267
  H         2.3568413033       14.8884234399       24.3495818037
  C         3.7733154779       13.3144157940       23.9240367657
  S         1.9571171000        9.2542424666       22.7464464625
  C         2.4776747209       10.1169633502       21.3145771727
  H         2.6931357949       12.1591665911       20.7359636049
  C         0.4451061074       10.4758371059       25.8691070953
  H         0.0357017786       14.0766602998       25.6755565484
  C        -0.1434642869       12.4066614138       26.8855632296
  H         4.1762306372       12.8002304842       23.0904346585
  H         3.5675691540       12.5036928927       24.6509205884
  C         4.8816175600       14.2348974778       24.3504500920
  C         2.9197128495        9.3895900292       20.0590998035
  C        -0.0493361401       11.1004293329       27.0306463562
  H         0.6367138210        9.3906921818       25.9448128316
  C        -0.4512460430       12.8523889383       28.1436502468
  H         5.5348269970       13.6883450597       24.9357201578
  H         4.3644140585       14.9566784846       25.0141796609
  C         5.7650157163       14.8150472306       23.2021359224
  C         2.7381145997        8.0201820169       19.8318695595
  C         3.4445468353       10.2532547089       18.9315184606
  C        -0.5042984093       10.4613327486       28.3633393060
  C        -0.7485103258       11.8147937771       29.0344971271
  S        -0.7351221382       14.3838470869       28.8325112605
  H         6.3694540310       15.6006131884       23.7170767611
  H         5.0972071600       15.3538248762       22.5397777784
  C         6.7270787536       13.8450835223       22.4585242814
  N         2.4363430639        7.0236038091       20.7212135005
  C         2.9514270082        7.5029850408       18.5649563490
  C         3.5973549545        9.6789366952       17.6494672569
  H         3.6560250658       11.2899145854       19.1051835323
  C         0.5619440887        9.6265973605       29.1457934957
  C        -1.7285540933        9.6639914490       28.1254697738
  C        -1.0656798672       12.2864729709       30.3067555453
  C        -1.0663701379       13.6338846930       30.3141578361
  H         7.7067469707       14.3288257723       22.3392412784
  H         6.8909487212       12.9464293507       22.9477034036
  C         6.1523223407       13.4453000156       21.0124441714
  S         2.2616739564        5.5456460369       19.9855393038
  N         2.5587111405        6.1555804395       18.4805549238
  C         3.3458204663        8.2506230508       17.4245177552
  H         3.9364632726       10.3163328003       16.8775302206
  H         0.8462356418        8.8754786923       28.4616382685
  H         0.1575169179        9.0731629436       29.9209294218
  C         1.7043517316       10.4371524939       29.6534586870
  H        -1.4469673996        8.8365619798       27.4546089639
  H        -2.1494733182        9.2351726391       29.1013598617
  C        -2.9279137585       10.5447719152       27.6157166728
  H        -1.2258866663       11.5635755754       31.0699079265
  C        -1.2640200364       14.4458465822       31.5706197460
  H         5.4926951971       14.1981179859       20.6732412408
  H         5.6097026243       12.5304259647       21.0529434627
  C         7.2712371945       13.5285420478       19.9440030473
  C         3.6264935843        7.6344769379       16.1510709213
  H         1.9529736769       11.1312633855       28.8161097514
  H         1.3866267364       11.0613079363       30.4409558380
  C         2.9407362093        9.6244128994       30.0422384901
  H        -2.7074434839       10.9514078479       26.6792268048
  H        -3.2179537025       11.3040575372       28.3420336427
  C        -4.1701734751        9.6943610839       27.4290339283
  C        -1.3413754267       15.8094110532       31.6916762460
  C        -1.4042086525       13.7097404900       32.8367023974
  H         7.9450523759       14.3169270815       20.0689238805
  H         7.9404753117       12.6340875109       19.9462072824
  C         6.7313434012       13.8112952688       18.5436657995
  H         3.3868098204        6.5967131023       16.1059433727
  C         3.9589949916        8.0518174427       14.8790189209
  H         3.3738517262        9.1548377123       29.1449054923
  H         2.7723945755        8.7660402767       30.6421861013
  C         4.0966522672       10.5438652810       30.5171927581
  H        -3.8436394904        9.0887158778       26.5822763962
  H        -4.4568295183        9.0042258116       28.2759928681
  C        -5.2949520509       10.5986291780       26.9150794290
  N        -1.2853260753       16.6733640940       30.6248037317
  C        -1.7061608170       16.4000427915       32.8584258487
  C        -1.7083108807       14.3287422874       34.0125762136
  H        -1.2835209194       12.6644061151       32.8979019480
  H         7.0585865097       12.9906085276       17.9354752771
  H         5.6422973901       13.7490831570       18.4569216834
  H         7.0725195097       14.7773155370       18.2224192614
  S         4.3118685713        9.6231955924       14.3997571628
  C         4.0383189092        6.9853714843       13.8000011882
  H         4.1506966723       11.4021156307       29.8244351185
  H         3.9516324060       10.9336175925       31.5201629481
  C         5.5058904061        9.9878140563       30.5082165832
  H        -4.8193860929       11.0809500584       26.0187580139
  H        -5.6016785595       11.3565496977       27.6467484109
  C        -6.5356720970        9.8658826641       26.5009263929
  S        -1.6008018407       18.1426621374       31.2295116748
  N        -1.9989589057       17.6806400659       32.7257511757
  C        -1.9574541243       15.7425071777       34.0543300754
  H        -1.8573527053       13.7911353074       34.9163453983
  C         4.4232467795        8.9534550053       12.7556146468
  N         4.4558945027        7.6247338846       12.6566075296
  O         3.5687592160        5.8606046724       13.8641406249
  H         6.0916193212       10.8096716253       31.0048945479
  H         5.8568449462        9.9751616582       29.4712865074
  C         5.7288460101        8.8072292088       31.4426282003
  H        -6.0919955318        9.1803403505       25.8382952505
  H        -7.0548010952        9.4136894049       27.3344579278
  C        -7.4353796907       10.7541173737       25.7390037971
  C        -2.2182213723       16.5091015891       35.2410559455
  S         4.8872777287        9.9617739301       11.3813897961
  C         4.5236184477        6.9882171663       11.3700769165
  H         6.6123182099        9.0475060488       32.0195707653
  H         4.8692057351        8.6843644170       32.1135894634
  C         6.0900513343        7.4414916607       30.7350212793
  H        -6.9280904047       11.3916105144       24.9668207322
  H        -7.7368945753       11.5620869943       26.3580905850
  C        -8.6094436423       10.0996595897       25.1945268569
  H        -1.9227439016       17.5443066695       35.2277188228
  C        -2.7820345736       16.2121602814       36.4475161289
  H         5.3384140176        7.4154300895       10.8068336035
  H         4.8163574623        5.9355689147       11.3105513734
  C         3.0929801530        7.1023601345       10.7764363312
  H         7.1417462610        7.5966945046       30.4030666184
  H         5.5892221606        7.3018076557       29.7789397168
  C         6.1166112676        6.1789417607       31.5587207036
  H        -8.7994819537       10.5806095460       24.2115712435
  H        -8.3786215300        9.0355862510       25.0410659822
  C        -9.8687827704       10.3068538903       26.0837678918
  S        -3.4279159647       14.7091055133       37.0606133255
  C        -2.8643854833       17.2903665406       37.4388807683
  H         3.0884899597        7.7841511983        9.9564565420
  H         2.8339604053        6.1279660010       10.3230785520
  H         2.4365154256        7.2266638683       11.6381819660
  H         6.4101920403        6.3174354977       32.6043463009
  H         6.8081006650        5.5048054637       30.9557043123
  H         5.1130412560        5.8514943429       31.5279511527
  H       -10.0318694498        9.3977837754       26.6240628764
  H       -10.7798534606       10.3635932969       25.5083258642
  H        -9.7852453373       11.1847181598       26.8071163562
  C        -3.8420931763       15.5671679845       38.5459997954
  N        -3.5835400447       16.8994724765       38.5011232757
  O        -2.4296301016       18.4320084318       37.2704146080
  S        -4.7983683070       14.9460215946       39.8482551328
  C        -3.7797094244       17.7756360961       39.6062591720
  H        -3.7871317607       18.7605605314       39.1110662326
  H        -4.7580123770       17.6494687523       40.0154368928
  C        -2.6948118372       17.6336702630       40.6575464272
  H        -2.8082151867       16.7267154523       41.2189282456
  H        -1.8072554178       17.7870001664       40.1277587107
  H        -2.6429482614       18.4180993927       41.3662300264
  H         7.3375924075       10.9985194108        3.5386031165
  C         8.0858468998       10.2283189691        3.5661730584
  H         7.5775111644        9.2889877407        3.4417626751
  C         8.9213045747       10.3201534361        4.8369616205
  C         8.9689625555       10.4885088354        2.2789491631
  C         8.1266413898       10.6130642283        6.1184119796
  H         9.3648903562        9.3355369076        5.1037233714
  H         9.6725106557       11.1188050570        4.7141739260
  H         8.2905724563       10.6654071039        1.4761405243
  H         9.5784289866        9.6244260510        1.9769110806
  H         9.6002979077       11.3636426240        2.4033442056
  C         7.1775184933        9.5076352313        6.6075526374
  H         8.8233404886       10.7900488933        6.8840909818
  H         7.5842540598       11.5207035480        6.0260573608
  C         6.5067102808        9.9316376180        7.9177661358
  H         7.7980346846        8.6867879411        6.9470794284
  H         6.5293946552        9.2969806979        5.7771777710
  C         5.3600199333       10.9410332731        7.7457850909
  H         7.0920565099       10.2232535462        8.7793557221
  H         6.0334708398        9.0346561391        8.1780248565
  C         4.0817890662       10.0793616764        7.4547458309
  H         5.3346052103       11.4225521817        8.6792662514
  H         5.5659069481       11.7424719559        7.1250074557
  C         2.8080634315       10.9597538102        7.2780724042
  H         3.7921484766        9.4122141935        8.2329566455
  H         4.3167889803        9.6505537892        6.5355207446
  C         3.1881156222       12.2991383707        6.6531293301
  C         2.3775362860       11.6548256046        8.5504824416
  C         1.6244806920       10.2866366642        6.4051889322
  C         2.7542299658       13.3815223293        7.4209872625
  C         3.6410646600       12.6565689852        5.4112171001
  C         2.3319747073       12.9668728767        8.6651853019
  C         2.1590569022       10.9398352075        9.7479490210
  H         1.9676087395       10.0664193391        5.3596657513
  H         1.3945484100        9.3581062534        6.7319622365
  C         0.2946229202       11.0531109407        6.3327769934
  S         2.9358919032       14.9249627354        6.6502285868
  C         3.7124235979       14.0554912606        5.3003859575
  H         3.9444723151       11.9016836259        4.6765671117
  C         2.0193894010       13.5161140412        9.8831477872
  H         2.3042389378        9.8933422835        9.7069837574
  C         1.6603135789       11.4745051997       10.9235132151
  H         0.4347331582       12.0496676672        6.0146625630
  H        -0.2158858637       11.0884261489        7.3014943154
  C        -0.8047306770       10.5593432284        5.4416268046
  C         4.1798644169       14.7633240491        4.0308163502
  C         1.5801774673       12.8313677243       11.0572927780
  H         1.9800152950       14.5674010917        9.9313291960
  C         1.2250067758       11.0801217412       12.1555852633
  H        -1.6624359224       11.2275729403        5.6422583261
  H        -1.1449075172        9.5897239930        5.7754567423
  C        -0.4157914935       10.5140605624        3.9474026446
  C         4.2248904894       16.1607590134        3.7751846213
  C         4.4954692993       13.8952782469        2.8608534761
  C         1.0924571421       13.5753205336       12.3272910808
  C         0.8889035493       12.1676546457       12.9739666093
  S         1.1040999997        9.5019612784       12.8737791228
  H         0.4686385683        9.9255758760        3.8232526372
  H         0.0013499753       11.4499587932        3.7452333118
  C        -1.4705423188       10.0885148834        3.0490539225
  N         3.9185388014       17.0977159478        4.7514303403
  C         4.4393825172       16.7194052056        2.5356056517
  C         4.8101468395       14.4596947249        1.6130021223
  H         4.6075267672       12.8634710412        2.9614358581
  C        -0.2555874439       14.3119434333       11.9920031323
  C         2.0837146653       14.4362011582       13.1530727514
  C         0.4848625332       11.6565107904       14.2067200199
  C         0.6687520926       10.3307333346       14.3660885671
  H        -2.0811663791        9.4235471468        3.6348764164
  H        -2.2082618841       10.8292277191        2.9400897261
  C        -1.0463429535        9.6126567923        1.6297933416
  S         3.6995005872       18.5075352534        4.0642512014
  N         4.1339433841       18.0180235075        2.5515536813
  C         4.7790952401       15.9579631178        1.3574206955
  H         5.1191245507       13.8615677894        0.8083358534
  H        -0.0848076454       15.0561574685       11.2071776282
  H        -0.6687209341       14.7018225034       12.9350366183
  C        -1.3689388393       13.3077375216       11.5903411529
  H         2.1299987345       15.4668034835       12.8547251943
  H         1.8083917815       14.3945434574       14.1755739878
  C         3.4993043161       13.9102792637       13.0791079180
  H        -0.0544210535       12.3523229635       14.7662541310
  C         0.2803596684        9.6559307736       15.6891840157
  H        -1.9328127720        9.1239411883        1.1991373656
  H        -0.2667572103        8.8892999067        1.8176686045
  C        -0.4663714591       10.7820805057        0.8062287544
  C         5.0682544286       16.5953391839        0.0872056028
  H        -0.9975206253       12.6335540239       10.8511639417
  H        -1.7937554180       12.7366752327       12.4475665375
  C        -2.5657211823       14.0651041720       11.0154892666
  H         4.0155627351       14.0529736923       12.0970679645
  H         3.3802636859       12.8225808788       13.2127229293
  C         4.2245659141       14.6053412912       14.1761139930
  C         0.2043849791        8.2830022275       15.8723233704
  C         0.2039811861       10.4774576942       16.9760548872
  H        -1.0143441457       11.6626295299        1.0235758403
  H         0.5884880891       10.9759628137        0.9165427508
  C        -0.7487953528       10.5140738707       -0.6705295287
  H         4.9430200836       17.6936290305        0.1335822619
  C         5.4159302855       16.1377192655       -1.1773685185
  H        -2.2803924160       14.5971977708       10.1066548938
  H        -2.8346403623       14.8066113004       11.7683337930
  C        -3.8821624268       13.2560178000       10.7237847395
  H         3.9316728133       15.6622052119       14.2054842366
  H         3.8467914517       14.1854803822       15.1459742748
  C         5.7338070998       14.3115478919       14.0788593840
  N         0.5124230593        7.3297346851       14.8803776040
  C        -0.0379181565        7.6584701615       17.0711492499
  C        -0.1418507950        9.8352634678       18.1590386139
  H         0.1889336872       11.5766982739       16.9664984499
  H        -1.7101143707       10.0832846315       -0.8218843883
  H        -0.1060390682        9.7433505631       -1.1151725469
  H        -0.7131286224       11.4866824532       -1.2756035249
  S         5.7911141287       14.5298510802       -1.5588164208
  C         5.4374874681       17.0781104934       -2.3045824603
  H        -3.7131405404       12.3193565152       10.2135619266
  H        -4.3723558470       12.9662950046       11.6638027799
  C        -4.9371791162       14.1084618928        9.9152442873
  H         6.2143275188       14.6945122767       13.1347249128
  H         5.8556765256       13.2219192899       13.9694450790
  C         6.5380565235       14.8944376696       15.2152829718
  S         0.3963597554        5.8151712245       15.4912180934
  N        -0.0801492243        6.2604899233       16.9696669037
  C        -0.3416999679        8.3890130098       18.2480376672
  H        -0.3071745003       10.4481996390       18.9598781990
  C         5.8720137818       15.0702301950       -3.2380798426
  N         5.8282450685       16.3916034477       -3.3992607634
  O         5.3815580382       18.3165906955       -2.2109353349
  H        -5.4823295125       14.6389983885       10.6792804916
  H        -4.3961136734       14.7934691951        9.2774640806
  C        -5.8251773466       13.1454005628        9.1218634590
  H         5.9034680785       15.4093576013       15.8757980539
  H         6.9598335947       14.0586687019       15.8799612363
  C         7.7556373048       15.7302323942       14.8536461866
  C        -0.7001764829        7.6552812932       19.4574756881
  S         6.3326291468       14.2404290154       -4.6214899111
  C         5.8416647940       17.0415379700       -4.7312282569
  H        -5.3401673999       12.8964514528        8.1911393913
  H        -6.0143972714       12.2030825893        9.6496551038
  C        -7.1718122000       13.6630403592        8.7367714394
  H         8.2063564871       15.3071955244       13.9453178748
  H         8.4620737736       15.5673002663       15.6245187023
  C         7.4651764410       17.2317580597       14.5510966320
  H        -0.4181654299        6.6165227009       19.4000572209
  C        -1.1036599187        8.0132175759       20.6764334025
  H         6.6370906289       16.8101097773       -5.5015589287
  H         5.9549388814       18.0753907441       -4.5179779973
  C         4.4050071104       17.1215189008       -5.2526296938
  H        -7.3851384181       13.0008888824        7.9259207658
  H        -6.9172106188       14.6572398600        8.3306491052
  C        -8.1057258446       13.7194841012        9.9798035601
  H         8.0437820712       17.4742102079       13.6399359232
  H         6.4259027388       17.4039333314       14.3421923145
  C         7.9316656795       18.1501663170       15.6467495434
  S        -1.5924850133        9.6101119629       21.1468934971
  C        -1.0579999498        6.9843360123       21.7439531727
  H         3.6351390376       17.3947871964       -4.5685838842
  H         4.0399833652       16.2693771273       -5.7561921817
  H         4.3119982130       18.0107764782       -5.9072663308
  H        -8.2399695255       12.8107817169       10.5559209306
  H        -7.7084059145       14.4244642868       10.7261009929
  H        -9.1957991137       13.9275101728        9.7717081173
  H         7.7569849708       19.0848823989       15.2570085737
  H         7.2607022800       18.1411580681       16.5353684171
  H         9.0039928619       18.1056574472       15.8438316992
  C        -2.0620082017        8.7420477415       22.6442436983
  N        -1.6779207683        7.4513885383       22.7953287757
  O        -0.5914693800        5.8052308376       21.6581975569
  S        -3.0362884958        9.4086039395       23.9492150021
  C        -1.7247334429        6.6863656928       23.9836096662
  H        -2.0975951828        5.7264007782       23.7305605382
  H        -2.4823930420        6.9550900873       24.6890083607
  C        -0.3579453408        6.6375522199       24.7476211454
  H         0.1297580608        7.5199074145       24.4627228308
  H         0.2343888002        5.8052167847       24.3131201470
  H        -0.4394484625        6.7116126323       25.8169688090
