352
i =
  H        -3.1071335490       14.7906547412       16.2842068249
  C        -2.7290813130       13.8418593741       16.4326670429
  H        -3.6322386333       13.2756713044       16.6109937010
  C        -1.7051019195       13.8399253690       17.6485902084
  C        -2.1122731139       13.2780291934       15.1572860673
  C        -2.2796796367       14.2174615321       19.0818636767
  H        -1.3128795913       12.8573551109       17.8712825883
  H        -0.8583605100       14.5342520273       17.4362762211
  H        -2.5836272542       13.7173009625       14.2981531088
  H        -1.0849118450       13.4797051312       15.1338220565
  H        -2.3353834146       12.1829683668       15.0712011718
  C        -2.1375933950       13.1830353457       20.1784965542
  H        -3.3483575917       14.4139799179       19.0601200254
  H        -1.8798822746       15.0922858678       19.4226707284
  C        -2.6645299004       13.5767851116       21.5657376346
  H        -2.5314930138       12.2307364777       19.8053108238
  H        -1.0937772809       12.9358113773       20.3354793332
  C        -1.7027653282       12.9904329707       22.5604252338
  H        -3.6588001440       13.1574490085       21.7032602704
  H        -2.6951863467       14.6628006664       21.7168266935
  C        -0.3782779451       13.7830011331       22.7069704872
  H        -2.2154561963       12.7289298265       23.5081192510
  H        -1.5935413373       11.9594957286       22.2107649903
  C         0.8201345432       13.0322095128       23.4109503368
  H         0.0096160378       14.0799541384       21.7316861037
  H        -0.6438804276       14.7353413119       23.1828413095
  C         1.1496100103       11.7615641177       22.6667575088
  C         0.4098217459       12.3617554084       24.6409057153
  C         2.0889891472       13.9846807163       23.6074743306
  C         0.8788757478       10.6180467952       23.4534137594
  C         1.7538318928       11.4227885030       21.4658634403
  C         0.4386934703       11.0104552620       24.6890967057
  C         0.0407661686       13.0019724898       25.8663910001
  H         2.3022797584       14.4318210813       22.6470831434
  H         1.8792038353       14.8510112496       24.1592422469
  C         3.3345134463       13.3928687470       24.1743377541
  S         1.2253055232        9.1312697621       22.6366538991
  C         1.7759082612       10.0522376951       21.3147362017
  H         1.9700901545       12.2218169725       20.7279359788
  C         0.1079433578       10.3447181175       25.8409355225
  H        -0.0955060579       14.0812413358       25.9722761938
  C        -0.4000939415       12.3059424564       27.0159774516
  H         3.4656404794       12.3519933216       23.7834019085
  H         3.0802647888       13.2578786152       25.2233305909
  C         4.6218821580       14.2394233374       24.2706159096
  C         2.3335621675        9.3671405253       20.0682312685
  C        -0.3726654751       10.9440671310       27.0473003156
  H         0.0460548806        9.2717013114       25.7977408079
  C        -0.7495529245       12.6536675709       28.2506719244
  H         5.3336354060       13.6774455349       24.9067258342
  H         4.3832643144       15.2315411307       24.7681333535
  C         5.3401967555       14.4001572748       22.9591689669
  C         2.4088831612        7.9754626939       19.8400990452
  C         2.8817057885       10.2210047904       18.9398694584
  C        -0.7519629967       10.2499160388       28.2689986230
  C        -0.9961210083       11.5621831943       29.0395217419
  S        -0.9418104959       14.0861626221       29.1694826436
  H         6.2288004301       15.0385422502       23.1631646476
  H         4.7681473424       14.9797613466       22.2571255102
  C         5.7815265828       13.0768670448       22.3431307262
  N         2.3140913207        6.9445727442       20.7885163154
  C         2.6637553261        7.4852040554       18.5405477715
  C         3.1453228338        9.6920983589       17.6564768053
  H         3.3107619250       11.2024139827       19.0751559028
  C         0.3961342665        9.4159319550       28.8824490831
  C        -1.9592205853        9.3737505194       28.0488322298
  C        -1.5581431650       11.8922424740       30.2636367371
  C        -1.5100167997       13.2324767832       30.5366469952
  H         6.8762774111       12.7812863488       22.3645596574
  H         5.3165078084       12.2171024255       22.8172941034
  C         5.5318991261       12.8826444670       20.7945729362
  S         2.2404713328        5.5338365129       20.0118281744
  N         2.6211918640        6.0775726570       18.5461687091
  C         2.9979536346        8.2701821562       17.4071563638
  H         3.4826443675       10.3276295448       16.7811449672
  H         0.7382342442        8.6213645182       28.2127456112
  H        -0.0762805483        8.9468451054       29.7541673852
  C         1.5743436810       10.1061974329       29.4593307457
  H        -1.7093254444        8.6350781544       27.3097675034
  H        -2.1543139566        8.8652753031       28.9487530772
  C        -3.1896536529       10.2758056752       27.5611167936
  H        -1.8550652289       11.1415317179       30.9899881323
  C        -1.7713127188       14.0011973947       31.8285922010
  H         4.4887174722       13.1794981554       20.6145205156
  H         5.5863014918       11.8258057162       20.5054028051
  C         6.6821839207       13.7220093948       20.1599479336
  C         3.2408845881        7.6464640767       16.1068786107
  H         1.9392741065       10.9296806885       28.7335770365
  H         1.4310468643       10.5853449247       30.4357458819
  C         2.5908994198        9.0942774962       29.9675983571
  H        -2.8585613934       10.8452818841       26.6835837969
  H        -3.4751244166       11.0140919202       28.3065099671
  C        -4.4356909873        9.4045587207       27.1776129258
  C        -1.8350878445       15.4257811107       32.0012894044
  C        -2.0622050761       13.2234266264       33.0900677699
  H         6.6804879235       14.7463475637       20.4375618744
  H         7.6791104379       13.3014553436       20.5572856420
  C         6.7859917671       13.6220644801       18.6257537179
  H         2.8985111564        6.6209394445       16.0694283464
  C         3.5940190601        8.2056562464       14.9308800671
  H         2.8533966923        8.3568395680       29.1741578938
  H         2.1735917978        8.4708458303       30.7468065965
  C         3.8904580689        9.6970420950       30.5089119518
  H        -4.1029510313        8.7909266729       26.2922497837
  H        -4.7967818682        8.7690081471       28.0124957225
  C        -5.5897934683       10.3504966018       26.6785518076
  N        -1.6773675093       16.3886661345       30.9811444354
  C        -2.1461430623       16.0177884974       33.1797233830
  C        -2.3366883557       13.8407289831       34.2883887148
  H        -1.9893203583       12.1234773945       33.0589284448
  H         7.7605868986       13.9288626579       18.2654820852
  H         6.6055723121       12.6154766392       18.2999296799
  H         6.0176527031       14.2690436487       18.1586868942
  S         4.1833565481        9.7314640428       14.4690221471
  C         3.4552493884        7.2860920688       13.8007852807
  H         4.1215636616       10.5345029402       29.8306668011
  H         3.7022405862       10.1683215442       31.4908215829
  C         4.9579503328        8.5248835037       30.4876712309
  H        -5.1999594330       11.0346761499       25.9128661427
  H        -5.8901717303       10.9672552423       27.4998390914
  C        -6.8019244628        9.6284549748       26.1718402654
  S        -1.8495320776       17.8468143644       31.6371065960
  N        -2.2307054842       17.3745039005       33.0764473005
  C        -2.4081097566       15.3108102634       34.3791601077
  H        -2.6424658037       13.2526735573       35.2238122751
  C         4.3209635312        9.1153533949       12.8310223699
  N         3.9140655969        7.8761994025       12.6731598867
  O         3.2472546769        6.0767585325       13.9338853467
  H         5.9218318613        9.0973878161       30.3898754716
  H         4.8707168347        8.0140332653       29.5381292647
  C         4.9303846454        7.6708782445       31.7190179555
  H        -6.5920664368        8.8944632873       25.4629512685
  H        -7.2402541298        9.0921265570       27.0301889503
  C        -7.7042332628       10.5673144399       25.3431081864
  C        -2.6974604659       16.0581958526       35.5993618332
  S         5.0728406909        9.9718706400       11.5295082667
  C         4.1748406269        7.2525934332       11.3757933743
  H         5.3907192766        8.0580262546       32.6409149349
  H         3.9602574497        7.3230391355       31.9688435805
  C         5.6258903771        6.2918236225       31.4975978329
  H        -7.1952998552       10.9257743666       24.4828702384
  H        -7.7131710197       11.4123222458       25.9344702202
  C        -9.1136750576        9.8943569727       25.1029339396
  H        -2.4380061375       17.0748586761       35.4309858361
  C        -3.0715387856       15.7333491314       36.8706402372
  H         4.2480936197        7.8208447781       10.4752377566
  H         5.0792790114        6.7154738541       11.4871060749
  C         3.0051370187        6.3752484640       10.9090724585
  H         4.8817620219        5.6103768292       31.0851789930
  H         5.6600309199        5.7650535132       32.4560666812
  C         6.9288623997        6.3188691649       30.6966725875
  H        -9.5888441540       10.3701183596       24.2881809816
  H        -9.0687139517        8.8557428195       24.7121220962
  C        -9.9169423302        9.9855745472       26.3969538526
  S        -3.4798758684       14.2930657348       37.6233679236
  C        -3.2981559997       16.9608748672       37.7053625484
  H         3.0146145388        6.0985860780        9.8521320602
  H         3.0770938166        5.4245763365       11.4310234810
  H         1.9925061599        6.8043928327       11.0852098155
  H         7.6089031818        7.1397920310       30.7965667856
  H         6.6542242018        6.1526800193       29.6644429819
  H         7.4588177502        5.4924852562       30.9800238451
  H       -10.4731323942       10.9001443032       26.4393021245
  H        -9.2040282004        9.8936618221       27.2315164065
  H       -10.5698651003        9.1823436975       26.4903183668
  C        -3.7203678262       15.3064946697       39.1320998426
  N        -3.7552078982       16.6375421133       38.9037087386
  O        -2.9069697624       18.0345786491       37.3537122078
  S        -4.0995688229       14.6605288405       40.7247144124
  C        -3.9791782959       17.5916546134       39.9935898948
  H        -4.4329716462       18.4199784521       39.4250769557
  H        -4.6779621277       17.1710911752       40.6915900440
  C        -2.6264921803       18.0016734372       40.7261587585
  H        -1.9977404970       18.6239970300       40.0780825545
  H        -2.9202817699       18.5517194327       41.6431763026
  H        -2.0666414824       17.1512578028       40.9495071762
  H         7.3191861176       11.5707040228        3.3635106479
  C         7.6065570568       10.5982804727        3.4379442494
  H         6.7654674952        9.9725361077        3.7466164732
  C         8.6425397267       10.4462943567        4.5144046562
  C         8.0221905339       10.2555527176        1.9724739622
  C         8.1420499438       10.6165568938        5.9604447441
  H         9.1500927705        9.4908796412        4.5751105722
  H         9.4829516578       11.2149971104        4.4240810533
  H         9.0538936842       10.5462684690        1.8899168036
  H         7.3602088240       10.7395451827        1.2240139763
  H         7.9724418509        9.1595015447        1.8402768849
  C         7.3738406105        9.4347300968        6.4764724940
  H         9.0360753240       10.8967122199        6.5856339894
  H         7.4711368534       11.4548345376        6.1364882736
  C         6.6859719740        9.7184754821        7.8006999095
  H         8.0363410802        8.5144243764        6.5681424162
  H         6.6641047199        9.1098691140        5.7748722235
  C         5.4374475248       10.5497875839        7.6584607793
  H         7.4176795418       10.1321307398        8.4638694908
  H         6.4742850574        8.7701599730        8.3199668967
  C         4.1747874661        9.6679832317        7.3192790133
  H         5.3513554897       11.0376862253        8.5867780627
  H         5.4742989586       11.3357669703        6.9127258924
  C         2.9137625618       10.5013227724        7.0825970345
  H         4.2170785997        9.0230087552        8.1893882073
  H         4.3373904950        9.1174070757        6.3308544149
  C         3.1920561478       11.8711371276        6.4361158736
  C         2.4833071672       11.1611156557        8.3578466125
  C         1.7664158053        9.8441529724        6.3313789703
  C         3.1953658638       12.9808331554        7.2902356885
  C         3.6129073265       12.3376195603        5.2032924642
  C         2.6308075774       12.4878703203        8.4645083331
  C         1.9777115379       10.5386708864        9.5114105226
  H         2.2326013646        9.5402699610        5.3806959960
  H         1.4046230166        8.8562756445        6.7042359144
  C         0.4982427547       10.6527941887        6.1148938015
  S         3.6313228150       14.5462744879        6.6503986181
  C         3.8056604092       13.7191077147        5.1264461378
  H         3.7401308067       11.6643206851        4.4421399942
  C         2.2001709862       13.1405372869        9.5954953098
  H         1.9383425536        9.4376402137        9.5503272972
  C         1.6430733076       11.2050865430       10.6697364288
  H         0.7114578461       11.6211243187        5.7161925939
  H         0.0820838790       10.7876184054        7.0521275370
  C        -0.4546152461        9.9048091826        5.1800029770
  C         4.2918247433       14.4581935572        3.9255754829
  C         1.7262002926       12.5561189967       10.7769785002
  H         2.4146973366       14.1871059779        9.6044809167
  C         1.2647746372       10.8167099219       11.8985187989
  H        -1.3515358556       10.5225984636        5.1777635431
  H        -0.5883875083        8.8933022222        5.5288893990
  C         0.0508826533        9.7727789547        3.7686524784
  C         4.2624632875       15.8378718894        3.6951099461
  C         4.7106662314       13.5892057122        2.8414323301
  C         1.3466394824       13.3042341342       12.0227830180
  C         1.1530287116       11.9375433363       12.7636868708
  S         0.8469152693        9.3489631040       12.6717419888
  H         0.5897820654        8.7952332621        3.6593032790
  H         0.8002525593       10.5653591094        3.7070756802
  C        -1.0230150813        9.8809725245        2.6519425803
  N         3.9170077586       16.8522853202        4.6012648188
  C         4.5976706712       16.3531618074        2.4420343692
  C         5.0127765293       14.0862451056        1.5818916396
  H         4.7805022368       12.4735891867        2.9564799006
  C         0.0903698359       14.1198802817       12.0330966824
  C         2.5266825754       14.0698560434       12.7062840842
  C         0.8324518933       11.5488785451       14.1202234006
  C         0.6378805431       10.2113983043       14.1886448157
  H        -1.8655160511        9.2847056152        2.9866353157
  H        -1.3775361596       10.9479730286        2.6231969442
  C        -0.5112425974        9.4189034921        1.3056769079
  S         3.9227068957       18.2843443960        3.7916609548
  N         4.3129616860       17.7703477756        2.3314570237
  C         5.0350518030       15.5370182213        1.3499155585
  H         5.1476369353       13.3271770096        0.8969778426
  H         0.2387513952       14.9744196793       11.3486544476
  H        -0.3325916526       14.5492103346       12.9390679922
  C        -1.0197519704       13.3713944165       11.4225088079
  H         2.8865173993       14.8603814026       12.0318993145
  H         2.1599005926       14.5141003682       13.6609428398
  C         3.7244251123       13.2032292398       12.9999807140
  H         0.8062062895       12.2811146206       14.8371527873
  C         0.2016136180        9.5195153410       15.4842304068
  H        -0.1000226595        8.4106616260        1.4640633796
  H         0.3289688622        9.9743713643        0.9886978357
  C        -1.6094588459        9.2675309671        0.2368310307
  C         5.1818079620       16.1384328702        0.0019354997
  H        -0.7658227770       13.2837347974       10.3804553054
  H        -1.3415806598       12.4380197535       11.9443851579
  C        -2.2291549160       14.2072807896       11.2605002191
  H         3.9441199546       12.4180387988       12.2784683586
  H         3.5864805002       12.6189211555       13.8992850147
  C         4.9265365142       14.1031324666       13.3081975146
  C         0.0776510520        8.1163590807       15.5853649511
  C        -0.1047846537       10.2876449866       16.6953261552
  H        -1.3392002699        8.4389532781       -0.4165452560
  H        -2.5025059109        8.9048033745        0.6841403872
  C        -1.9757195934       10.5345573077       -0.5098503990
  H         4.9405870445       17.1817609950       -0.0850552068
  C         5.4241796997       15.6328033017       -1.2458916268
  H        -2.2140797494       14.9672925294       10.5065318645
  H        -2.5222881704       14.8061827614       12.1074899110
  C        -3.4430686279       13.3284254016       10.8093662223
  H         5.0860963202       14.8066032733       12.5547452549
  H         4.7562556086       14.7327494928       14.1965213218
  C         6.1031495846       13.2618720901       13.6705976173
  N         0.3027551983        7.1433439780       14.5689156962
  C        -0.2808216038        7.5222021993       16.7829585624
  C        -0.3382884167        9.6889388777       17.9160099477
  H        -0.0127883877       11.3522699307       16.7115406405
  H        -2.8683771828       10.9846626409       -0.0623500455
  H        -2.1959780450       10.3303558112       -1.5877987522
  H        -1.2405109120       11.3645115567       -0.4407792014
  S         5.8279943696       14.0007002830       -1.5526209028
  C         5.5052456629       16.5302754535       -2.4042165751
  H        -3.0263932209       12.4361271727       10.2655280641
  H        -3.9254470383       12.8820050032       11.6996438852
  C        -4.4039013482       14.1506703685        9.9814947453
  H         6.5047603112       12.9900964382       12.6687988506
  H         5.7672297359       12.3128293127       14.1077986528
  C         7.1200103646       13.8663711161       14.6037409523
  S         0.1681702025        5.7210194241       15.2234983237
  N        -0.2300305813        6.1126374603       16.7546859367
  C        -0.4776698520        8.2533001106       17.9809437383
  H        -0.4292321733       10.2450266519       18.7621631569
  C         5.9844617386       14.4660170655       -3.2878251572
  N         5.8708029700       15.8309895602       -3.4654779895
  O         5.4572832551       17.7332465888       -2.3570998119
  H        -4.9111034557       14.9458710848       10.5295280378
  H        -3.8572755898       14.6180655032        9.1837665942
  C        -5.4715257620       13.2284551168        9.4130379930
  H         6.6350164164       14.2161773943       15.4971845769
  H         7.9159352638       13.1630453950       14.8309430089
  C         7.8946365625       14.9664495561       13.9655799145
  C        -0.7844371684        7.5023382527       19.1495451663
  S         6.6417308391       13.6126171234       -4.6688627947
  C         5.9413335580       16.5295455226       -4.7209989041
  H        -4.8913491845       12.4578960425        8.7386713406
  H        -5.7060443772       12.5222178528       10.2395706907
  C        -6.7301079964       13.7805356265        8.7220572957
  H         7.5318009646       15.2820086696       12.9498651206
  H         8.9605546759       14.9324723215       14.0835151570
  C         7.6519325593       16.1967476357       14.8160516426
  H        -0.3793958216        6.4525276582       19.1000914847
  C        -1.3013976618        7.8828076324       20.3443331209
  H         6.5522251001       16.1261520952       -5.4676976079
  H         6.3934875622       17.5702850640       -4.5664045582
  C         4.5891905802       16.7177991712       -5.4090289761
  H        -6.9833945978       13.2086237654        7.8384392623
  H        -6.5461714758       14.7942887472        8.2879407270
  C        -7.7943840313       13.7889532120        9.7721374744
  H         6.6146320131       16.1048053904       15.1367399399
  H         8.3399954028       16.2245964182       15.6561534929
  C         7.8020397958       17.4636102793       13.9998897400
  S        -2.0107324413        9.3880689093       20.7155483605
  C        -1.4233788314        6.8397946780       21.3492077705
  H         4.2627122800       15.9485014534       -6.1036626509
  H         4.5227068063       17.6690134682       -5.8962580392
  H         3.8289488726       16.7435816428       -4.6679533770
  H        -8.5627556312       14.4431779656        9.5044770627
  H        -8.2381150753       12.7889864686        9.8957934820
  H        -7.3986515381       14.0488219375       10.7785938418
  H         7.8644781300       18.2996649388       14.7048737687
  H         8.7765516055       17.4787478522       13.3885501565
  H         6.9207181302       17.5934788069       13.3960834294
  C        -2.4112623543        8.6099740435       22.2225835259
  N        -2.1866679568        7.2745932470       22.3256314492
  O        -0.9762771049        5.7170820405       21.1640492075
  S        -3.1925891898        9.2808372868       23.6647251822
  C        -2.3936402903        6.5195677889       23.4812861554
  H        -2.2239332889        5.5211874993       23.2635826846
  H        -3.2842960077        6.6663593026       23.9877103360
  C        -1.2581368525        6.7503719771       24.4590902958
  H        -1.2821522611        6.1586034589       25.3350586838
  H        -1.2476720124        7.7697152947       24.7445516478
  H        -0.2880852101        6.4675728938       24.0126335370
