352
i =
  H        -3.3354497483       15.3543318788       16.5285229620
  C        -3.1646560129       14.2597630700       16.2528390954
  H        -4.1710938307       13.8120999376       16.1684562075
  C        -2.4317079431       13.6875420791       17.4640976610
  C        -2.4103569050       13.8988393981       14.9857691008
  C        -2.6598152654       14.2917150866       18.8199532743
  H        -2.6974405333       12.6894081909       17.4817028674
  H        -1.3385085424       13.6960223017       17.3165197858
  H        -1.5017174951       14.3969986295       14.8721376640
  H        -2.1310377821       12.8739226978       15.0157118123
  H        -3.0694701693       13.9811546653       14.0812497153
  C        -1.8604101611       13.4518705829       19.8048407131
  H        -3.6584324218       14.4413456613       19.0697105032
  H        -2.2337366673       15.2871985242       18.8526079191
  C        -2.2786018266       13.7869810070       21.2520494203
  H        -1.8952692157       12.3743860021       19.6772433088
  H        -0.8409222895       13.9015268518       19.7164524754
  C        -1.4405986211       13.0513055028       22.3650897849
  H        -3.2795743866       13.4683519281       21.3117994389
  H        -2.3369114561       14.8434883465       21.5232214140
  C        -0.1609070117       13.7684323276       22.6492621869
  H        -1.9623869829       12.9167485404       23.2924072957
  H        -1.2683431350       12.0187234199       22.0377372806
  C         0.9994165392       13.0670857155       23.3596747145
  H         0.3210274811       13.9604021049       21.6442096397
  H        -0.4290050943       14.7088185509       23.1672145561
  C         1.3231991734       11.8091470184       22.6373853291
  C         0.6203788891       12.3533889852       24.6080527892
  C         2.2861030134       13.9928528233       23.4061913830
  C         1.0842237806       10.6801765524       23.3629183143
  C         1.8181477288       11.4122182951       21.3836786014
  C         0.6056927666       11.0030356502       24.6648865106
  C         0.2559117968       12.8822874566       25.7878210221
  H         2.3517631695       14.5167507431       22.4367025294
  H         2.1025192488       14.9019081222       23.9547246078
  C         3.6026264351       13.3553402705       23.9635442843
  S         1.3828555568        9.2044456669       22.6162280260
  C         1.9502309949       10.0497123919       21.2455065422
  H         2.0439896911       12.1118894780       20.6028704276
  C         0.2079708574       10.2922503357       25.7895023588
  H         0.4329096751       13.9480314800       25.8424519933
  C        -0.1177446174       12.2544310703       26.9311214189
  H         3.8641072928       12.5776895586       23.2491859655
  H         3.4764486106       12.8646485165       24.9085054499
  C         4.8587503729       14.3077182192       24.1343936661
  C         2.4147428898        9.3653147904       20.0157514778
  C        -0.1738133699       10.8845531006       26.9694940398
  H         0.3982567858        9.2639498695       25.7024302695
  C        -0.4424636527       12.6662380617       28.1531299374
  H         5.6299625737       13.9663070647       24.8497852275
  H         4.5086484508       15.1506956044       24.6847086464
  C         5.3702914083       14.8784533209       22.8169249525
  C         2.5350109000        7.9602385022       19.7893259502
  C         2.9458699751       10.1928741451       18.8531779865
  C        -0.5040245751       10.2396528476       28.2461476311
  C        -0.7605224291       11.5995375828       28.9680917015
  S        -0.6522305213       14.2047758329       28.8229816578
  H         5.9419777258       15.7258262082       23.0874926430
  H         4.6029060578       15.2533308689       22.1020866389
  C         6.4068412196       13.9800603434       22.1806433332
  N         2.3548408111        6.9812733622       20.7610350482
  C         2.8225926280        7.4352879697       18.5671766689
  C         3.2941692077        9.6506141994       17.6342600475
  H         3.0570228276       11.2580122490       18.9471792341
  C         0.6170426158        9.4120165481       28.8905791326
  C        -1.7817549382        9.4073324736       27.9713723549
  C        -1.0805580553       12.0637697548       30.2674846852
  C        -1.1320951420       13.4850368123       30.3142547592
  H         7.4049687934       14.2333032925       22.4303027703
  H         6.3624584980       12.8885905435       22.3995265031
  C         6.2272803423       14.0333144764       20.6486432670
  S         2.4926064842        5.5418210275       20.1055038960
  N         2.8165792144        6.0349587077       18.5801532124
  C         3.1545977618        8.1708268172       17.3889693803
  H         3.7164734505       10.1857535181       16.7980247105
  H         0.7453657826        8.3792730738       28.5116698540
  H         0.3379422862        9.2251092172       29.9363820345
  C         2.0277182234        9.9935249360       28.7468075434
  H        -1.4696342483        8.6863047505       27.2194389411
  H        -2.1532714984        8.8587972948       28.8806000527
  C        -2.9890865889       10.1850873515       27.5338606790
  H        -1.5424465345       11.4501458743       30.9509352330
  C        -1.5365891247       14.3520849323       31.4127520651
  H         6.0578815341       15.0213519392       20.2228054987
  H         5.4905915397       13.2752064512       20.4951706306
  C         7.4978184575       13.4950376563       19.8770768822
  C         3.4053236108        7.4738140877       16.1051923122
  H         2.5030328900        9.6198215473       27.8220508915
  H         2.0522185163       11.0641445437       28.7117229606
  C         3.0307344065        9.6234609247       29.8809526774
  H        -2.8261347372       10.8712707359       26.7702004282
  H        -3.3037222216       10.7498123404       28.4117773850
  C        -4.2331865432        9.4171558478       27.1447128266
  C        -1.4745883542       15.7534793670       31.4935858172
  C        -1.8621689641       13.5956183386       32.6550119601
  H         8.3673618706       14.0905630848       20.0767826096
  H         7.7689380516       12.4908259544       20.2094946490
  C         7.1836347152       13.3303452126       18.3742143811
  H         3.3651644092        6.4028242518       16.1393543355
  C         3.7531300043        7.8828749343       14.8348900534
  H         2.7894058962        8.6496479319       30.2855061027
  H         2.7431996805       10.3277481735       30.5995153299
  C         4.5261276819        9.7993727634       29.7089435343
  H        -4.0505482395        8.7512375378       26.3440070121
  H        -4.5752939219        8.7512875782       27.9728582793
  C        -5.3982674947       10.4005902484       26.8059188554
  N        -1.2272007113       16.6693122550       30.4748355127
  C        -1.8299625603       16.4541778629       32.6188289331
  C        -2.1218271464       14.3456372806       33.7946476155
  H        -2.0131540067       12.5476914912       32.6342932407
  H         6.1806995029       13.0427094692       18.3790025714
  H         7.1904531484       14.3169344042       17.8218446910
  H         7.7523703664       12.4986085183       17.8690106307
  S         4.2632534946        9.5060297530       14.3856999825
  C         3.7548331002        6.9258617890       13.6992934420
  H         4.7067093967       10.4300534356       28.8484245789
  H         4.8691201525       10.3392405852       30.5626533430
  C         5.3098454543        8.4488242201       29.6860152904
  H        -4.9791691267       11.1868084263       26.1233907749
  H        -5.8042141305       10.8845664421       27.7135905429
  C        -6.6199345390        9.6145032326       26.2583699767
  S        -1.1666577143       18.1815835717       31.0182455794
  N        -1.7246949149       17.8518438376       32.4770056566
  C        -2.1128874588       15.8252182254       33.8640106953
  H        -2.4053400906       13.7560056634       34.6960103113
  C         4.5781375153        8.8863006260       12.8132689721
  N         4.2344965715        7.5923556896       12.6355652790
  O         3.5676522016        5.7007706331       13.7438098664
  H         6.4173378766        8.7750670290       29.6425507739
  H         5.1426891949        7.8562960811       28.7692952864
  C         5.1861243603        7.6579573503       30.9727278905
  H        -6.2646762131        8.8038422356       25.6993808732
  H        -7.1319846083        9.1314339651       27.1089178657
  C        -7.5046959816       10.5539234466       25.4451462013
  C        -2.3451803378       16.6108360641       35.0521534468
  S         5.0348477163        9.7964584248       11.3683392526
  C         4.3649512386        6.9339109029       11.2848119317
  H         5.6978292115        8.1999580046       31.7381526318
  H         4.1531115905        7.5249479062       31.3510103521
  C         5.8074281874        6.2913518395       30.9284179325
  H        -6.9792812539       10.7045480810       24.5521885306
  H        -7.5443563937       11.5240285290       25.9367977787
  C        -8.8759705449        9.9488358859       25.0185634855
  H        -2.0689172362       17.6230971523       34.9978668935
  C        -2.8250962674       16.2886943390       36.2763016954
  H         4.8403423827        7.4864612377       10.5511133926
  H         4.8874061631        6.0267524814       11.3418935751
  C         2.8923247810        6.5955691077       10.7545981021
  H         5.6000025422        5.9463947356       29.9275095639
  H         5.4177142727        5.6573298366       31.6538482026
  C         7.3075609580        6.4105724747       31.0711243800
  H        -9.3556316420       10.4852323822       24.2476551050
  H        -8.6571888021        8.8795481803       24.6999929225
  C        -9.9329708808        9.9498127621       26.1000760390
  S        -3.3091738645       14.7349579459       36.9260982024
  C        -2.7856755193       17.3729302202       37.2989538861
  H         2.8651779065        6.2243828426        9.6945135565
  H         2.3940290659        5.8152536474       11.3925908419
  H         2.1755978603        7.4290273075       10.7817182682
  H         7.8382091537        5.5108512172       30.6625492310
  H         7.5639788370        6.5926790399       32.0992356626
  H         7.8065159118        7.1629069198       30.5617891592
  H       -10.2652649630       10.9929510528       26.2867592895
  H        -9.6218752677        9.4376804601       26.9365072170
  H       -10.8411187766        9.4356583896       25.7469452385
  C        -3.5782597866       15.5796976796       38.4267516821
  N        -3.2119969608       16.9351670837       38.4589247231
  O        -2.5679426510       18.5636481445       37.0508077162
  S        -4.1565320227       14.8126168198       39.9664314139
  C        -3.4524103929       17.8290404332       39.6237590516
  H        -3.6104365207       18.9127538940       39.4154058751
  H        -4.4812943482       17.5990729547       39.9155669746
  C        -2.5000583180       17.5203522031       40.8231657496
  H        -2.0113981529       18.4341537163       41.1494929954
  H        -3.1100468684       17.1407110202       41.6495817802
  H        -1.7551913189       16.7870012862       40.4674141885
  H         8.0827985141       11.8329945703        3.7222576009
  C         8.5554341139       10.8780535562        3.7624673060
  H         7.8469029871       10.1055710518        3.8458692036
  C         9.3794179659       10.9842287137        5.0335933204
  C         9.3407130839       10.7334891815        2.4742634724
  C         8.4552351280       11.1088491898        6.2268679718
  H         9.9762920237       10.0627488271        5.1440646250
  H        10.0522454762       11.7872662374        4.9886235081
  H         8.5478871504       10.6650701029        1.7449869121
  H         9.8884909958        9.7884651210        2.3887683225
  H        10.0804282215       11.5407796697        2.4185444127
  C         8.0372600380        9.8037839583        6.8418006868
  H         8.9867247504       11.8053879484        6.8809630478
  H         7.5925082928       11.6683822722        5.9756962494
  C         7.0609315105        9.8760579387        8.0950393266
  H         8.9051506518        9.3213683659        7.2311620996
  H         7.6919896197        9.1072625148        6.0321196987
  C         5.7009782775       10.5328580744        7.9107398392
  H         7.5701419610       10.1971813315        8.9408897980
  H         6.7043549777        8.8944245609        8.3717079390
  C         4.6784927402        9.7182388655        7.1247186595
  H         5.3300138304       10.9234756015        8.8778574851
  H         5.7912903510       11.4078136189        7.3524336383
  C         3.3901296460       10.6066767267        6.7796496924
  H         4.5159863925        8.7173782827        7.6467494246
  H         5.0930544417        9.4865375642        6.1728408915
  C         3.7317798811       11.8928259500        6.1746420622
  C         2.9632039418       11.2580829818        8.0365800239
  C         2.2653193016        9.8810114399        5.9527172293
  C         3.3454858637       13.0015645941        6.8630015106
  C         4.2791368450       12.2259989099        4.9657149374
  C         2.9376673993       12.6043389630        8.1005829624
  C         2.5098212706       10.6257971328        9.2205208761
  H         2.7287664435        9.4960280998        5.1224247634
  H         1.8384609622        9.0374217316        6.4955553379
  C         1.0446159233       10.7963425828        5.6974975738
  S         3.6678670097       14.4346409184        6.1736707368
  C         4.3328269351       13.5782498635        4.7905251373
  H         4.5069074366       11.4281968273        4.2549700294
  C         2.5476694365       13.2146015201        9.2337933054
  H         2.4677228364        9.5927645453        9.1567331860
  C         2.1182729829       11.2334457903       10.3430712456
  H         1.3681661030       11.6407757883        5.1700359369
  H         0.7606098325       11.2484152219        6.6392530726
  C        -0.1379276139       10.2196460584        4.9980435429
  C         4.7859731911       14.4199223677        3.6776797091
  C         2.2113835193       12.6044724904       10.4633240623
  H         2.5798429926       14.2872303792        9.2034738787
  C         1.7267008837       10.8763632189       11.6014250952
  H        -0.7756586397       11.0724012714        5.1575210242
  H        -0.5130195904        9.3794929648        5.5428331704
  C        -0.0543681713       10.0832171432        3.4589118624
  C         4.5191042393       15.8200507871        3.4386589901
  C         5.3620662126       13.7557612683        2.4722998278
  C         1.8859473632       13.3195512063       11.6926545026
  C         1.5314622434       11.9931647910       12.4333055787
  S         1.2680545899        9.4297875347       12.4566587944
  H         0.7694758690        9.4644116720        3.2742761108
  H         0.2826563861       11.0298289007        3.0505678181
  C        -1.3181943209        9.6627636701        2.7477281382
  N         4.0177275886       16.7513497814        4.3293367591
  C         4.7942683417       16.4342984522        2.2439308217
  C         5.5960042782       14.3511504777        1.2682263913
  H         5.6800932111       12.7136922197        2.6797805462
  C         0.5228804118       14.0970789975       11.7198224555
  C         3.0836298935       14.1188798859       12.3384189602
  C         1.0367297142       11.6566331104       13.7448968622
  C         0.8257032427       10.2968107046       13.8955860428
  H        -1.9022222586        8.9216965712        3.3084775072
  H        -2.0361028444       10.5389527779        2.5918884768
  C        -1.0403528270        9.2067382327        1.2815984582
  S         3.9048774202       18.2156717919        3.6409956944
  N         4.5399796939       17.7883970384        2.2145178011
  C         5.2838470657       15.7838962185        1.0903661554
  H         6.1007943178       13.7788665702        0.5419165553
  H         0.7639045263       15.0555016586       11.1858489873
  H         0.5224155030       14.3687907851       12.8411917993
  C        -0.6694701411       13.3363731508       11.1900422613
  H         3.6373567202       14.8506745304       11.7290970776
  H         2.7731665330       14.7858835212       13.0858697559
  C         4.0729158418       13.3322713304       13.0975762968
  H         0.8696712530       12.4072541169       14.5368414670
  C         0.2793564043        9.6395779317       15.1477157093
  H        -1.9183471906        8.7107043560        0.8727399629
  H        -0.2634606738        8.4189127057        1.2811111979
  C        -0.5785618943       10.2850571798        0.2929233110
  C         5.4291199210       16.5630141348       -0.1454296251
  H        -0.5305723941       12.9670894941       10.1326042474
  H        -0.7939463068       12.4287540786       11.8617492156
  C        -1.9285157619       14.2282328276       11.2409162909
  H         4.5425972116       12.5649199004       12.4724028611
  H         3.5759650848       12.8109928430       13.9736615749
  C         5.1855194409       14.2617494728       13.6054216330
  C         0.1802358769        8.2361005250       15.2978248606
  C        -0.1239129258       10.4126567195       16.3672029881
  H        -1.5082242809       10.8820452321       -0.0084564936
  H         0.0233267188       11.0442588878        0.7408463798
  C         0.0678065517        9.5451323133       -0.9717276382
  H         5.5094504786       17.5955796349        0.0207923429
  C         5.7656562592       16.2814296531       -1.4486032014
  H        -1.7692215855       15.0594020175       10.5106756888
  H        -1.9354013265       14.8300279830       12.1326528849
  C        -3.2163052739       13.3306569834       10.9209596162
  H         5.5492229694       14.7333642464       12.7541055550
  H         4.7579065230       15.0317836866       14.2963971716
  C         6.3455168533       13.6563771256       14.3843180025
  N         0.4303484728        7.3482124940       14.2849430639
  C        -0.1749467344        7.5805065955       16.4926250067
  C        -0.4583705521        9.7408470343       17.5336380588
  H        -0.0566033286       11.4400612135       16.3729007321
  H         0.1915888131       10.1639117498       -1.8169470747
  H        -0.5181246328        8.6135249129       -1.2482896707
  H         1.0876623434        9.2778896361       -0.8075145076
  S         5.8986925341       14.7359529828       -2.0838137757
  C         5.8616831127       17.3409302883       -2.4035634039
  H        -2.6915944759       12.5887526817       10.2946994480
  H        -3.5299031850       12.8190965286       11.8003015999
  C        -4.4041247640       14.1079900009       10.2669576710
  H         6.5641715666       12.7275611986       13.8395359544
  H         6.1773654998       13.4590596742       15.4090983498
  C         7.5778801488       14.5135981115       14.2622341657
  S         0.2151241898        5.8313404056       14.7891471093
  N        -0.0324338969        6.2228666856       16.3754786022
  C        -0.5473153619        8.2615496628       17.6492390382
  H        -0.8261453029       10.3374088583       18.3597295170
  C         6.1638155774       15.5566222853       -3.6139312880
  N         6.1136244546       16.9043452311       -3.6058177290
  O         5.9147221937       18.4907449035       -2.1389189335
  H        -5.1675006035       14.3071860419       11.0232777909
  H        -4.0416331055       15.0521780969        9.8582392048
  C        -5.1494913114       13.3261023325        9.1541069647
  H         8.2805748874       13.9822909597       14.9516229553
  H         7.9875912547       14.4887820679       13.2690035667
  C         7.3377438531       15.8196170735       14.9779766543
  C        -0.6779999615        7.3929859319       18.8446774249
  S         6.4596750789       14.9063616344       -5.2061760974
  C         5.9950352616       17.7218142949       -4.8296513705
  H        -4.5435766077       13.3341487535        8.2676860228
  H        -5.4495291353       12.2880479507        9.3335153655
  C        -6.4230023288       14.1218700469        8.7154107153
  H         6.9982455692       15.7211525094       16.0285115223
  H         6.4929117978       16.3745502534       14.5448086923
  C         8.5672100400       16.7557476639       14.9479905459
  H        -0.3118776791        6.3960447800       18.7343807130
  C        -1.1930379432        7.6555015274       20.0681532781
  H         6.4900123268       17.4109280373       -5.8520906433
  H         6.4141043917       18.7136239783       -4.5799322147
  C         4.4677740806       17.8764305997       -5.1188020036
  H        -6.6629109324       13.8486098052        7.7278924213
  H        -6.2548341462       15.1833505466        8.6582103892
  C        -7.5843765731       13.7003004081        9.6053418350
  H         9.1223237933       16.4600128247       15.8271400488
  H         9.1596591785       16.4765043078       14.1193827914
  C         8.1328777719       18.2345209068       14.8792967111
  S        -1.9300845724        9.1885024046       20.5552620525
  C        -1.1942140472        6.6588031560       21.1167511901
  H         4.1388543400       18.7000474764       -5.7267651860
  H         3.9758806673       17.9863429519       -4.2148532644
  H         3.9654008474       17.0527586448       -5.6502431093
  H        -7.6428499730       14.4862722001       10.3598720844
  H        -8.5921796856       13.7329468324        9.1465015258
  H        -7.5003996316       12.7026244080       10.0412335988
  H         7.4785928403       18.4496379635       14.0196544336
  H         7.7614622896       18.6138577984       15.8226394990
  H         9.1310871701       18.6600190740       14.7225384562
  C        -2.2951971125        8.3987091003       22.1032891248
  N        -1.9592657934        7.0945464283       22.1634030278
  O        -0.7375372568        5.5024090596       21.0134591641
  S        -2.9774902941        9.2571487278       23.5002686672
  C        -2.0489322564        6.2238535353       23.3575125137
  H        -2.1442094425        5.2016207773       23.0572468792
  H        -2.9047171144        6.2760968932       23.9680963818
  C        -0.8608756165        6.4647210742       24.3377556863
  H        -0.4788745390        5.4430126829       24.6591375481
  H        -1.1511467911        7.0464150193       25.2368700742
  H        -0.0718757940        6.9786535184       23.9095282220
