352
i =
  H        -3.5308158100       14.7477281070       16.3879554172
  C        -3.3092806745       13.7100375832       16.5424007165
  H        -4.2425006926       13.1849193823       16.8524168693
  C        -2.2152113033       13.4706104617       17.5738432029
  C        -2.9189935007       13.0823806509       15.2399411857
  C        -2.8968109175       13.4008382672       18.9217932359
  H        -1.6567749137       12.6316097961       17.3098118836
  H        -1.5175409020       14.3507164294       17.5216002159
  H        -2.0232021061       12.4392198584       15.1371277265
  H        -3.8884945140       12.6091550816       14.9874036009
  H        -2.6721406561       13.8362868553       14.4798079808
  C        -1.9008786642       13.2753448353       20.0688392446
  H        -3.4537404541       12.5102022652       18.8490977043
  H        -3.5853720853       14.2434533817       19.1500343521
  C        -2.4163935714       13.7586538236       21.3982100179
  H        -1.6336194788       12.2755727002       20.2085373774
  H        -0.9904272219       13.8342539556       19.7471543732
  C        -1.4982119835       13.2373720631       22.5458732316
  H        -3.3776037254       13.2841292862       21.5553779426
  H        -2.5734311938       14.8406291949       21.3561091845
  C        -0.1946503699       13.9506309875       22.7740826974
  H        -2.1195931636       13.1432341675       23.3937307848
  H        -1.3528762745       12.1393669608       22.3433383906
  C         0.9269474400       13.0509285357       23.3358596499
  H         0.1163680320       14.3291501957       21.7789354487
  H        -0.3547664027       14.8029683551       23.4061364941
  C         1.0859180083       11.6098194335       22.6511400962
  C         0.5433283830       12.4036882005       24.6091946227
  C         2.2295609192       13.8701852008       23.4090341098
  C         0.9923642342       10.5404184027       23.5268006923
  C         1.4068874211       11.1127214978       21.3847776368
  C         0.5519403256       11.0236967175       24.7493370657
  C         0.0821965102       13.0593021572       25.7975409181
  H         2.6489622634       14.1479455821       22.3975947885
  H         1.8229467619       14.7160127872       23.9653824305
  C         3.3294118598       13.1182985636       24.1708152738
  S         1.5185225447        9.0299155905       22.8385429793
  C         1.7823509112        9.8452490302       21.3681648202
  H         1.5400021117       11.7641308345       20.6335787032
  C         0.1468851060       10.5088056558       25.9280216345
  H         0.2637641414       14.1497076740       25.6523522090
  C        -0.2950292754       12.5051926069       26.9602427803
  H         3.7250189552       12.2861342379       23.6104179479
  H         2.9098725768       12.7359192249       25.0430031656
  C         4.5029755304       13.9454624081       24.5481225942
  C         2.3385446441        9.1237893167       20.1479564656
  C        -0.3003324194       11.1839353326       27.0840161353
  H         0.1237653564        9.4181199043       25.9239986107
  C        -0.7009772502       12.9420225934       28.2246885472
  H         5.0658273806       13.4060322979       25.3012521495
  H         4.1254111781       14.8296080142       25.1035562070
  C         5.4338811076       14.3687418514       23.4541691494
  C         2.2640575033        7.7546472554       19.8625517364
  C         2.9101858010        9.8792368735       19.0808760890
  C        -0.7744500277       10.4531615257       28.3681780514
  C        -0.9371332305       11.8072012995       29.0331339632
  S        -1.0281288676       14.4446331074       29.1058812058
  H         6.1805788244       14.9358008952       24.0308890190
  H         4.9337587352       15.0366868469       22.7464661327
  C         6.0407039120       13.2530678275       22.5635188904
  N         1.8010279537        6.8163524837       20.7681289853
  C         2.6681649694        7.1744758561       18.6588870158
  C         3.3002355818        9.3221787219       17.8651827105
  H         2.9865033739       10.9319581758       19.2099965174
  C         0.2099048928        9.4274049808       29.1499158802
  C        -2.1601800679        9.7853190124       28.1442457791
  C        -1.3479855036       12.1788289323       30.2909031722
  C        -1.4177964440       13.5439114150       30.4555377883
  H         7.0876138226       13.4509880918       22.4880105373
  H         5.8420029949       12.2704195549       22.9094105015
  C         5.3888735609       13.1801243923       21.1263756486
  S         1.6611965334        5.4025804715       20.0397191083
  N         2.3140156343        5.8777659477       18.5876362934
  C         3.1042149172        7.8848705259       17.5427737600
  H         3.7208801654        9.9960659113       17.1156210338
  H         0.5472767234        8.7547444151       28.3999844619
  H        -0.2244290775        8.8958209638       29.9699300217
  C         1.5302209691       10.0689784060       29.5327752472
  H        -2.0966143403        8.8893905134       27.4839408876
  H        -2.3909016322        9.3812773318       29.0863088571
  C        -3.3108731526       10.6427068763       27.6071658010
  H        -1.5232184692       11.4268480996       31.0728897829
  C        -1.7688319974       14.2179623126       31.7597960573
  H         5.2182859695       14.2414549051       20.7375487102
  H         4.4558156184       12.6248375151       21.2281921806
  C         6.3305945933       12.5199402981       20.1341996335
  C         3.3064572092        7.1969211784       16.3523379332
  H         2.0080652006       10.6124674512       28.7378167778
  H         1.2802780972       10.7539235940       30.3843902405
  C         2.6215977757        9.0638350058       30.0324436779
  H        -3.0163829699       11.4026104160       26.9104050467
  H        -3.6819236216       11.2071009544       28.4049121836
  C        -4.4837467372        9.8517726676       27.1928082787
  C        -1.9439992977       15.5968872886       31.9155046259
  C        -2.0912773060       13.3016348391       32.9123572373
  H         6.6326583529       11.5981991374       20.6456658402
  H         5.8281538969       12.2759058744       19.1327255607
  C         7.5296241189       13.3696843705       19.7842411153
  H         3.1567372695        6.1725299885       16.4402170193
  C         3.5413372948        7.7332914675       15.0499135389
  H         2.7688701174        8.1914927067       29.4133471598
  H         2.2452467444        8.6673098855       30.9531288561
  C         4.0567687888        9.5938684846       30.4295521522
  H        -4.1030614156        9.2593408199       26.3480060445
  H        -4.8046332559        9.2664217493       28.0250894333
  C        -5.8231750109       10.6198241008       26.9209246772
  N        -1.4959456403       16.5226102974       30.9844208826
  C        -2.3044207780       16.1659925187       33.0948484435
  C        -2.5834820756       13.8924792919       34.0715050114
  H        -1.8248388851       12.2271175208       32.9455615324
  H         7.1687719164       14.1087720989       19.1616498544
  H         7.8658919946       13.8006265390       20.6752623148
  H         8.2087535717       12.8183013595       19.2126190950
  S         3.9467601233        9.3061590040       14.5712012091
  C         3.5696352584        6.7251973381       13.9712056956
  H         4.3180203753       10.5381670048       29.9416865403
  H         3.9348743316        9.7706733764       31.4959783824
  C         5.1224333145        8.4715562905       30.1608160467
  H        -5.5493036473       11.4654648142       26.2583558724
  H        -6.2719769066       10.8587670595       27.8542283749
  C        -6.8250885574        9.7640161368       26.1442256716
  S        -1.6510927175       17.9914168705       31.7063326074
  N        -2.3746943871       17.5616711816       33.0545020197
  C        -2.6892212779       15.4048182480       34.2383068128
  H        -2.7390994728       13.1428009310       34.8924116760
  C         4.3070098969        8.6371890506       12.9435689116
  N         4.1052212966        7.3001058556       12.8449827287
  O         3.3034514886        5.5709928520       14.1101538456
  H         6.0755232295        8.9907766719       30.2281207545
  H         4.8480829133        8.1293889628       29.1450543676
  C         5.0861425462        7.3718532098       31.1154336124
  H        -6.2253729251        9.1086110420       25.4619825229
  H        -7.3847757109        8.9947242911       26.7356709843
  C        -7.9038938800       10.5044833878       25.3687483086
  C        -3.0328093157       16.1169835788       35.4761646582
  S         4.7458382562        9.6200323996       11.5420577170
  C         4.0963856339        6.5454249534       11.6058549811
  H         5.0266613137        7.6853734449       32.1706169160
  H         4.3693294772        6.6132802978       30.9978227939
  C         6.4066179468        6.5382970812       30.9141597759
  H        -7.5225560719       10.7741743433       24.4058787189
  H        -8.2247173979       11.4829477972       25.8331972158
  C        -9.2747308999        9.7359445894       25.2082378887
  H        -2.7312852820       17.1955433804       35.5038123687
  C        -3.4779857611       15.6991122472       36.7044480920
  H         4.5994767883        6.9484911349       10.7238109489
  H         4.5907490853        5.6111316564       11.8453730559
  C         2.6913135030        6.1775564227       11.1608476158
  H         7.3384105435        7.0000878051       30.5688153676
  H         6.1978351274        5.7163558089       30.1823571259
  C         6.6251967918        5.9397622598       32.2648490865
  H        -9.9744466361       10.3237297599       24.6105866133
  H        -9.1235256798        8.7507972753       24.7825021850
  C       -10.0137236698        9.6828963997       26.4831018300
  S        -3.9904399246       14.1226907732       37.1134557818
  C        -3.7087401400       16.7600521419       37.8157872346
  H         2.2854388570        6.9617183377       10.5456598876
  H         2.7136263447        5.2788771063       10.5807416819
  H         1.9019008417        6.0680424378       11.8925501377
  H         7.2238050317        5.0871209674       32.1442419536
  H         5.6607530308        5.6739794455       32.6500706159
  H         7.1270702338        6.8039081023       32.8309939285
  H       -11.0287288615        9.2681747723       26.3510081645
  H       -10.0430388683       10.7188297376       26.9432088184
  H        -9.4731317630        9.2727547606       27.3346788594
  C        -4.3362693468       14.7868919812       38.7607901502
  N        -4.1434121742       16.1549808774       38.9094593540
  O        -3.4233723190       18.0018280822       37.6825658810
  S        -4.7933575565       13.8721948336       40.2640268868
  C        -4.2828127284       16.9370527318       40.1302014609
  H        -4.6601355515       17.9183120065       39.7790648671
  H        -5.0723901703       16.6150208797       40.7665515809
  C        -3.0251434982       17.0246371218       40.9584130320
  H        -2.0833740827       17.1539405506       40.3911871404
  H        -3.0921238813       17.8306306879       41.7247891814
  H        -2.7697112867       16.1144383219       41.5271920367
  H         7.3757355740       10.7259712181        3.4912029600
  C         8.0543638817        9.8519264563        3.5253610629
  H         7.4319332931        8.9101098490        3.5232589854
  C         8.8953340052       10.1507270256        4.7942507157
  C         8.8373645241       10.0959425866        2.2985446985
  C         7.9827644346       10.2964972083        6.0426050573
  H         9.6520685062        9.4340055908        4.9687125867
  H         9.4248694618       11.1063747282        4.6734562966
  H         8.1282256632       10.0516621755        1.4766872484
  H         9.6395271434        9.3854563470        2.1760809835
  H         9.2851559384       11.1099098394        2.3101849928
  C         7.4676384154        8.9138213370        6.5357396244
  H         8.5078377881       10.6988474349        6.8529278052
  H         7.1883586173       10.9749809046        5.7092628350
  C         6.7081226355        8.9972699898        7.8691916599
  H         8.3503018157        8.4361433228        6.7881973125
  H         6.8936328550        8.2736641272        5.8077412094
  C         5.4492711799        9.8526394387        7.7453664428
  H         7.4003524665        9.5834660008        8.5162312114
  H         6.5246841571        7.9469111301        8.2578508982
  C         4.1224249589        9.1658271158        7.3932559826
  H         5.3139463426       10.2685769424        8.7667671441
  H         5.6312571574       10.7538718044        7.1498108419
  C         2.8874780291       10.0836629291        7.0279016841
  H         3.9354364045        8.4709477074        8.2100279878
  H         4.2764742965        8.4804995482        6.5436641939
  C         3.2493856473       11.4532913889        6.3351982588
  C         2.4090553566       10.8268460229        8.2512617555
  C         1.6998969551        9.3717424376        6.3015805868
  C         2.9525574023       12.5298457700        7.1201410048
  C         3.8500516757       11.7879633023        5.0938641974
  C         2.3531548689       12.1424135874        8.2922251759
  C         2.0630978600       10.2086368904        9.4458665061
  H         2.0759675701        8.9479017325        5.3728446245
  H         1.3004741426        8.6405665142        6.9468620716
  C         0.5663342464       10.3268545959        5.8740229027
  S         3.5153090366       14.0099579874        6.4510880594
  C         4.0535233929       13.1597111862        5.0144851594
  H         4.1295817677       11.0626650144        4.3887233097
  C         2.0235809067       12.7974072428        9.3993895766
  H         2.1167343838        9.1505933392        9.5141179563
  C         1.6843614690       10.8666584204       10.5894745250
  H         0.9562887436       11.3128925089        5.5463995240
  H         0.0378671807       10.5964217059        6.7784166722
  C        -0.3880632145        9.6679316646        4.8105267711
  C         4.4301297577       13.9411184409        3.7691700673
  C         1.6176522612       12.2206216921       10.5875119611
  H         1.9631540422       13.9040659639        9.4202058456
  C         1.3185760403       10.4982053919       11.8432880928
  H        -1.1826803682       10.2968312881        4.8495059715
  H        -0.8837637046        8.7768325475        5.0724149516
  C         0.2221447291        9.6412867112        3.3470344929
  C         4.4274290578       15.3362941890        3.6128797969
  C         4.7721700010       13.1873964998        2.5608419323
  C         1.1571283711       12.9274800761       11.8097217810
  C         0.9470761716       11.6059163083       12.5786264692
  S         1.0861364372        9.0351317853       12.7253986974
  H         1.0070523434        8.9063825093        3.3083788080
  H         0.7231634048       10.5775012840        3.1744823073
  C        -0.8453774876        9.4370429501        2.2081898682
  N         4.1743614762       16.2464886510        4.6211945334
  C         4.5840176623       15.9208224666        2.3799668445
  C         4.9856203074       13.7953018389        1.3352159533
  H         4.9279531306       12.1352680181        2.6558148728
  C        -0.1280793346       13.7108269644       11.6651379595
  C         2.1707267179       13.6643523019       12.6984382287
  C         0.6393176569       11.2509609569       13.9038703549
  C         0.5712726409        9.8952451081       14.0519072670
  H        -1.2175542576        8.3936501048        2.1631763084
  H        -1.6951040682       10.0190648702        2.4231826940
  C        -0.3276984595        9.8487571241        0.8759710857
  S         4.1833516744       17.7514723813        3.9635424432
  N         4.4231421155       17.3373708003        2.3638314076
  C         4.9419622188       15.2616775245        1.1978472573
  H         5.1759643163       13.2002196818        0.4282466667
  H        -0.0050367136       14.6104203403       11.0648038975
  H        -0.5021935233       14.1912196152       12.5864295474
  C        -1.2243109259       12.9428653715       11.0352964237
  H         2.3095080860       14.5967880340       12.1724696172
  H         1.7341560730       13.9088265357       13.6927611906
  C         3.4974803649       12.9264937086       12.9409426937
  H         0.3764520267       11.9952449669       14.6071791557
  C         0.1940926929        9.2680611475       15.3646155103
  H         0.4953097121        9.1801190664        0.6379386469
  H         0.1173793079       10.8690154004        0.9605334373
  C        -1.4220720482        9.7785368935       -0.2207467718
  C         5.2179112011       16.0474306922        0.0678271363
  H        -0.9260028256       12.5236228835       10.0646524810
  H        -1.3317352349       12.0979257974       11.7188036508
  C        -2.5559035666       13.7020891744       11.0914126216
  H         3.8615996457       12.4686472716       12.0055559504
  H         3.3629968748       12.0539082734       13.5741848023
  C         4.6027378697       13.8206958088       13.4837735267
  C         0.0220853152        7.8501504993       15.6226692128
  C         0.0007570587       10.1460871652       16.5171996742
  H        -1.6441390070        8.6999600136       -0.2325876263
  H        -2.3811243629       10.1516553040        0.0769297723
  C        -0.9679673791       10.2462299276       -1.5639365665
  H         5.2165652097       17.1015269556        0.0995554917
  C         5.4722152470       15.6470689935       -1.2409307207
  H        -2.4611705010       14.6659935344       10.6393369544
  H        -2.9177643300       13.8369591125       12.1096822918
  C        -3.6561381672       12.9494048363       10.4117664759
  H         4.7508283133       14.6639858239       12.7894971947
  H         4.2868902986       14.4248445163       14.3562378675
  C         5.8700379312       12.9579763082       13.6599503161
  N         0.2645431683        6.8065255714       14.6822198564
  C        -0.3350221052        7.3844727285       16.8296028632
  C        -0.3602246571        9.6755894336       17.7664948839
  H         0.1632548616       11.2163795612       16.4977797926
  H        -0.5563777455        9.4253809160       -2.2025768122
  H        -0.3734164477       11.1382124382       -1.5498685771
  H        -1.8879737953       10.6782172128       -2.0849446813
  S         5.6863211309       14.0673251778       -1.8967109139
  C         5.5484507853       16.6760245065       -2.2874096172
  H        -3.1089080741       12.3206709875        9.7307645035
  H        -4.1377990140       12.3978873510       11.1621965222
  C        -4.6466610993       13.8889486524        9.6812679658
  H         6.2626377336       12.6139960142       12.7059264171
  H         5.6907989544       12.0694470397       14.2652113274
  C         6.8528952513       13.8107029564       14.4621154268
  S        -0.1379375122        5.3708821466       15.3585522035
  N        -0.4078383485        5.9648198071       16.8438984133
  C        -0.5889115558        8.2173110249       17.9679717731
  H        -0.4178285636       10.2966335205       18.6981799217
  C         5.8448499948       14.7773031288       -3.4308594493
  N         5.8354623841       16.1354303019       -3.4615995968
  O         5.2486626869       17.8212004977       -2.1679948315
  H        -5.0513511363       14.7623438313       10.3416127412
  H        -4.1661552174       14.4567429734        8.8393042643
  C        -5.6489725007       13.0151088711        9.0309017663
  H         6.3950282888       14.3618264201       15.2843502423
  H         7.5159707109       13.1059384131       14.9191382911
  C         7.7175735339       14.7292880859       13.5605492707
  C        -1.0236809735        7.6322118403       19.1667249607
  S         6.3902853108       13.9165710764       -4.9021570677
  C         5.9172314854       16.9861657127       -4.6923272644
  H        -5.2827635432       12.2362746321        8.3973695856
  H        -5.9603851393       12.2839388282        9.8597817114
  C        -6.8401770320       13.7526460104        8.3684369308
  H         7.1235308514       15.2313809919       12.7723378456
  H         8.3457007892       14.1322466396       12.9042947837
  C         8.4876639719       15.6987820481       14.4215977464
  H        -1.1186766474        6.5355515235       19.1385760456
  C        -1.4501706013        8.0731456973       20.4059878836
  H         6.2923719612       16.4050888738       -5.5426578458
  H         6.6091992446       17.7617416345       -4.5092295157
  C         4.5435088362       17.4115139505       -5.1392594717
  H        -7.2798781604       13.0588736862        7.6962605351
  H        -6.4588575915       14.5609183880        7.7905048213
  C        -7.9145912188       14.0325809281        9.4354779814
  H         8.4866249432       15.5299950724       15.5114191538
  H         9.5937594083       15.6090731890       14.2155672201
  C         8.1096801094       17.2145900263       14.2570514590
  S        -1.8885918734        9.6414036732       20.7945006408
  C        -1.6752250743        7.0657570774       21.4598098095
  H         3.8447871855       16.6849039072       -4.6368860764
  H         4.4257053394       17.4171553078       -6.2509629158
  H         4.2021117914       18.3968850039       -4.7303003304
  H        -7.4971491659       14.2027282961       10.4150347649
  H        -8.6909208122       14.7684916820        9.1274506237
  H        -8.4757278506       13.1490397849        9.6397875581
  H         8.1843536708       17.4234177234       13.1879412581
  H         7.0802975492       17.4773009805       14.7041524707
  H         8.7965226251       17.7954970703       14.7307436618
  C        -2.3927700965        8.9654139311       22.3579616239
  N        -2.3098949892        7.6573225289       22.4667109466
  O        -1.5074461395        5.8645056174       21.3256487573
  S        -3.1253031749        9.9027365743       23.6417270500
  C        -2.6003417146        6.8948811291       23.6908783044
  H        -2.8633920064        5.8592306191       23.4773042482
  H        -3.3802705262        7.3122749288       24.3040268584
  C        -1.3538173648        6.9819299010       24.6035679197
  H        -1.4980509394        6.3151007090       25.5139013537
  H        -1.3589946340        7.9156579204       24.9968124024
  H        -0.4716069575        6.7227029139       24.1575297422
