352
i =
  H        -2.9440941491       15.7808027036       16.9708012556
  C        -3.0750498262       14.7196121172       16.6698820488
  H        -4.1215744022       14.6772400306       16.8539041718
  C        -2.4028631044       13.6521643969       17.5839072200
  C        -3.0528887265       14.7374826898       15.1116235687
  C        -2.3918209875       14.3038939499       19.0239982428
  H        -3.0540185700       12.7742424682       17.3578704954
  H        -1.3091950325       13.5814715892       17.3222347403
  H        -3.6069650644       13.8989269946       14.7655617876
  H        -3.4980132945       15.5903272437       14.6547782204
  H        -2.1769703015       14.5872029894       14.7339553124
  C        -1.8021745209       13.3990469799       20.0707293016
  H        -3.4514987076       14.5680827771       19.3310445056
  H        -1.7063341010       15.2441004291       18.9807698732
  C        -2.1289925733       13.7341803184       21.5023662627
  H        -1.9864772099       12.3469182003       19.7864678237
  H        -0.7629601312       13.2425883836       19.9223737056
  C        -1.1581864870       13.0345996466       22.4412986617
  H        -3.1415342715       13.4737190962       21.6705138061
  H        -2.2419805951       14.7614098099       21.5939478537
  C         0.0845172844       13.8234287141       22.6090253717
  H        -1.7252869233       13.0363942341       23.4163805967
  H        -1.0059236493       11.9317637446       22.0922755383
  C         1.2475072875       13.1029131776       23.3260597770
  H         0.3855670967       13.9334634366       21.5342623929
  H        -0.0958779141       14.8184249270       22.9650928053
  C         1.5955412181       11.8088631809       22.6093596865
  C         0.8225728662       12.2966699314       24.5239328548
  C         2.4680027896       14.0089515238       23.5775224599
  C         1.3581955296       10.6576809201       23.3960937064
  C         2.0971616076       11.4219474702       21.2760657197
  C         0.9062736970       10.9765202806       24.6621034062
  C         0.1909801890       12.8976445744       25.6297506590
  H         2.8838642210       14.5573702486       22.6915335607
  H         2.0816921495       14.6695557126       24.2640078983
  C         3.7144374023       13.3289264972       24.1179207171
  S         1.6672544423        9.2204789841       22.5213568966
  C         2.1965497796       10.0695196809       21.1283408090
  H         2.2079641036       12.0873098659       20.5040848415
  C         0.5259394035       10.4102588364       25.8564353978
  H         0.0521464903       13.9557657880       25.5849134280
  C        -0.2193676450       12.2903426764       26.7923024201
  H         3.8776380844       12.5561134613       23.4921801545
  H         3.3639077525       12.6683817273       24.9313630002
  C         4.9711732944       14.1823085767       24.5659743877
  C         2.5864902922        9.3539890077       19.7869536731
  C        -0.1166608399       10.9574934696       26.9100002812
  H         0.5590768893        9.3051869196       26.0015717424
  C        -0.6475052200       12.6884846590       28.0308904324
  H         5.5484174305       13.7860902568       25.3810336384
  H         4.5398867066       15.2134444418       24.8521040628
  C         5.8806415257       14.3871134844       23.3377661340
  C         2.6426712496        7.9755984650       19.5277898959
  C         2.7896603319       10.1986920974       18.5802823481
  C        -0.4162592828       10.2711209711       28.2146426995
  C        -0.6866409208       11.5943794258       28.8893485557
  S        -0.8939843844       14.1612260922       28.8512637455
  H         6.6779959224       15.1092279288       23.5543570791
  H         5.3334998781       14.8536031502       22.6047700148
  C         6.4688741069       13.0980090494       22.7303827500
  N         2.3501364196        7.0527214563       20.5082944909
  C         2.9563689969        7.4439984651       18.2745038361
  C         2.9982124110        9.7087202429       17.2629795269
  H         2.5396403401       11.2207508644       18.6035687304
  C         0.7807421176        9.5561783151       28.8109605165
  C        -1.7819253388        9.4490204390       28.0301548014
  C        -1.1798156660       12.0459950853       30.1492537101
  C        -1.3235927327       13.4094107000       30.2427606110
  H         7.3426306852       12.8205753074       23.3351723988
  H         5.8278620345       12.2623248749       22.5687794940
  C         7.1680577033       13.2349655459       21.3131522212
  S         2.3967656356        5.5148184951       19.8417093550
  N         2.9324013712        6.0323278526       18.3283535260
  C         3.1695390647        8.1921466813       17.0989943369
  H         2.9807804500       10.2815815166       16.4073351145
  H         1.2239668335        8.7060218388       28.2227264155
  H         0.2944495508        8.8542588538       29.6518803037
  C         1.7928796643       10.4559244153       29.5197288529
  H        -1.4715073505        8.7851681948       27.2709217532
  H        -1.9311901201        8.7632689408       28.8143894723
  C        -2.9138501729       10.3171067796       27.4632736941
  H        -1.3182745067       11.2587891337       30.7840506580
  C        -1.7648790711       14.0885597959       31.5169794686
  H         7.6833847807       12.3067631080       21.2894863533
  H         7.8943248526       14.0037340915       21.2708780274
  C         6.2632094762       13.2073297793       20.1905902018
  C         3.5317560270        7.4226417382       15.8781194638
  H         2.2382309052       11.1272469687       28.9190420583
  H         1.4213096507       11.0747242318       30.3262371781
  C         2.9220606474        9.6570697643       30.0109895491
  H        -2.7149819249       10.8828593100       26.5978779839
  H        -3.2249105540       11.1641652425       28.0463564566
  C        -4.1817810998        9.4696587172       27.3634743306
  C        -1.7655723409       15.4705018909       31.7259521329
  C        -2.0314157805       13.2418506459       32.7117304492
  H         5.9231841158       12.2073603953       19.9113869376
  H         5.3058104522       13.6599095145       20.4351509045
  C         6.8483601416       13.9674824325       18.9950028460
  H         3.2784005722        6.3956691630       15.8107797669
  C         3.9990501529        7.8182397299       14.6527984826
  H         3.2428996448        8.9424197784       29.2469378604
  H         2.5741817071        9.2621347799       31.0299081330
  C         4.1583898724       10.5052382567       30.4038090467
  H        -3.9554040249        8.7481925624       26.4515291956
  H        -4.5119273115        8.9972919696       28.2525424412
  C        -5.2538202154       10.4399657610       26.8589167300
  N        -1.2753200081       16.3795241351       30.7795655193
  C        -2.0623271945       16.0010073605       32.9086759420
  C        -2.2282237563       13.8692608861       33.9530438108
  H        -1.9621647361       12.1648354556       32.5915851205
  H         7.4114200903       14.7284736658       19.2961610394
  H         7.5532356125       13.3829135067       18.4074648433
  H         6.0592414303       14.1898138566       18.2511477052
  S         4.1896704659        9.4685123776       14.1342965396
  C         4.0369723492        6.7754598758       13.5553743078
  H         4.2108880434       11.5282006583       29.9499576342
  H         4.1946999307       10.7191230930       31.5075291036
  C         5.4803352933        9.7709699165       30.2561932117
  H        -4.8439253588       11.2910150953       26.2412646308
  H        -5.7890964992       11.0029247853       27.6519328784
  C        -6.2607412808        9.5651104607       26.0298872770
  S        -1.4779659251       17.8899205783       31.3107298491
  N        -1.9732464674       17.4845841825       32.7866720073
  C        -2.2566257611       15.3010837529       34.1244020276
  H        -2.4551201315       13.0920288245       34.7839112496
  C         4.1529016431        8.8378453211       12.5242664597
  N         4.3290652584        7.4676165372       12.4252760371
  O         3.8554498545        5.6114210297       13.7520812037
  H         6.1590771661       10.5332079123       30.5251059739
  H         5.7642365501        9.5948454854       29.1831571520
  C         5.8094054464        8.5449264402       31.1321170205
  H        -5.7051357313        9.0466149933       25.1663826352
  H        -6.5605520791        8.7651650612       26.6333747531
  C        -7.3463569504       10.5665466126       25.5773150210
  C        -2.5561404389       16.0579680124       35.3168385754
  S         4.5309720331        9.8891963874       11.1535149358
  C         4.3096984004        6.8335395382       11.0947797983
  H         6.6742874730        8.7378412540       31.6750019502
  H         5.0946601560        8.3383324308       31.8482297696
  C         6.1789040595        7.2365805203       30.3937989647
  H        -7.0135615172       11.2381703383       24.7963828969
  H        -7.7456350636       11.3167210026       26.2925315663
  C        -8.6126560473        9.9939462389       25.0662769675
  H        -2.2752009153       17.0994267066       35.1807402380
  C        -3.1106570746       15.7815997495       36.5609236621
  H         5.0856226478        7.2455815224       10.4889610525
  H         4.5263777933        5.7503994707       10.9932841198
  C         2.9202023372        6.9680687360       10.4985650271
  H         7.2737088344        7.3004722171       30.0236529352
  H         5.5237861481        7.0210718063       29.5649280840
  C         6.0196609576        5.9871264197       31.3250617731
  H        -9.1231045452       10.8209750634       24.5893896469
  H        -8.5376976245        9.1114434817       24.5172669948
  C        -9.6599159583        9.6960253107       26.1377180449
  S        -3.4858028505       14.2330883646       37.0558393604
  C        -3.3295986233       16.8941821129       37.4893900057
  H         2.3523474071        7.0504132743       11.3748977476
  H         2.9861509784        7.8287782064        9.9104298494
  H         2.5566606816        6.1736030759        9.9716748201
  H         5.2494131671        6.1657004409       32.1376260653
  H         6.9765972199        5.7655548841       31.8378989019
  H         5.8352061557        4.9932772650       30.8538944047
  H       -10.6647752893        9.3603465567       25.6807703771
  H        -9.7223847469       10.5537821975       26.8005874709
  H        -9.3057136471        8.9052838639       26.8221077000
  C        -3.6607764026       15.0136250632       38.6537954412
  N        -3.7822727544       16.3369606387       38.6343694821
  O        -3.1584934204       18.0398813065       37.2060372903
  S        -4.1097522393       14.2462320315       40.1056126950
  C        -4.1241470864       17.1332847442       39.8156387648
  H        -4.4330226894       18.1993722484       39.4329230514
  H        -5.0034868336       16.7958362410       40.4631945972
  C        -2.7750002964       17.1973423886       40.5378694720
  H        -2.4702467928       18.0561361298       41.0803512808
  H        -2.9585574802       16.4629269344       41.3791071025
  H        -1.9662773555       17.0459109905       39.9342068347
  H         7.1322067862       11.2267779349        3.3088547921
  C         7.7566470685       10.4069176371        3.4742098108
  H         7.1899159324        9.4577825840        3.6638190573
  C         8.7074076219       10.4440879658        4.6431372291
  C         8.5095312817       10.1389119334        2.2228295349
  C         7.9239888174       10.5452998303        6.0122700555
  H         9.2770472484        9.5415117448        4.7027215737
  H         9.4679268056       11.2089146041        4.5147199762
  H         7.9558153766       10.4562166811        1.2818101031
  H         8.8008890502        9.0835594290        2.3732082628
  H         9.4650674234       10.6547511566        2.2911585348
  C         7.2796370921        9.2046133507        6.3882263621
  H         8.5705943164       10.9115486185        6.8389116511
  H         7.2091658056       11.2666702811        5.6573476073
  C         6.4016480614        9.3250030542        7.6607075957
  H         8.1351908548        8.6545748771        6.8432349277
  H         6.8169386221        8.6077603131        5.6258152936
  C         5.1819200498       10.3551571752        7.5384125518
  H         7.0029212390        9.8249737616        8.4439035493
  H         5.9140879150        8.3972980583        7.9915367634
  C         3.8821830082        9.6794255541        7.0418300920
  H         5.0053855033       10.7945360069        8.5721376382
  H         5.3869575573       11.2172431836        6.9646386512
  C         2.7364054538       10.6185035586        6.8685055291
  H         3.5814538567        8.8989863434        7.8184470159
  H         4.3542761631        9.2253138016        6.1117607103
  C         3.0930214831       11.9728101502        6.1767212553
  C         2.4424255553       11.3383269203        8.1286046771
  C         1.4475086896        9.9931882951        6.2064470622
  C         3.0283567858       13.0741736298        7.0307223071
  C         3.4958328603       12.3971335802        4.8842286314
  C         2.5151980917       12.6485209671        8.2522907304
  C         2.0076831461       10.7794207838        9.3137799546
  H         1.7722534499        9.6334255315        5.2678436219
  H         1.1975977122        9.1019948467        6.7606953832
  C         0.2558320178       11.0422819737        5.8689778576
  S         3.3748674462       14.5594790616        6.3138206279
  C         3.6806647258       13.7583104487        4.8860713519
  H         3.3006279121       11.6371562921        4.0866567605
  C         2.0374763970       13.3201211552        9.3397464961
  H         1.9352839821        9.7103112261        9.1829209083
  C         1.6203943428       11.4032969041       10.4962969342
  H         0.6723702743       11.9192850771        5.4006025841
  H        -0.2081408050       11.3708403243        6.8055791357
  C        -0.5716969073       10.4012948778        4.7189844642
  C         3.9537204950       14.5023805763        3.5475741453
  C         1.5895501203       12.7576073923       10.5739440525
  H         2.0702020935       14.3475067862        9.1913568132
  C         1.3006024499       11.0165235019       11.7733745998
  H        -1.6264805783       10.5501726781        4.8538486513
  H        -0.4148919379        9.2730034900        4.5420586385
  C        -0.3030706677       11.1081491044        3.3475852789
  C         3.9336815695       15.8901968477        3.3497229463
  C         4.5994953242       13.7681639541        2.4931581751
  C         1.1633118746       13.4591264853       11.8777647354
  C         1.0803761489       12.1334225355       12.5531272743
  S         1.1458473388        9.5226494689       12.6400036668
  H         0.7816214869       11.2172441528        3.2222886468
  H        -0.6760298489       12.0301416739        3.2046711580
  C        -0.8618832896       10.2854141957        2.1438068007
  N         3.4931898423       16.7653017814        4.2999628618
  C         4.3731924558       16.4698674499        2.1348937604
  C         5.0717978374       14.2990052067        1.2473103041
  H         4.7113193848       12.6552438807        2.6226795333
  C        -0.1626228956       14.2159044045       11.7380170502
  C         2.3190102935       14.3091018592       12.4245655179
  C         0.7573191682       11.8218195962       13.8271024758
  C         0.6993696783       10.3992067322       14.0310748932
  H        -0.5766792749        9.3012778806        2.3122550056
  H        -1.9923899993       10.4456182703        2.0342907557
  C        -0.1993489353       10.8051688800        0.8618780706
  S         3.6628144368       18.2660685971        3.6641628262
  N         4.2472189551       17.8471340057        2.2436870075
  C         4.7385014660       15.7395183779        0.9858407558
  H         5.2845674061       13.5641324363        0.4877565754
  H        -0.1837764199       15.0804054617       10.9656067993
  H        -0.2622710139       14.6448942242       12.7700493162
  C        -1.4876894824       13.3624945644       11.6932052352
  H         2.6683710601       15.0883013842       11.7065072282
  H         1.7917480091       14.7986450849       13.2080119047
  C         3.6227440812       13.4844978479       12.7852365417
  H         0.3967770918       12.6371387869       14.4699149735
  C         0.1888864185        9.6978349627       15.2526177539
  H         0.8523418297       10.5859263669        0.8468689500
  H        -0.2868878117       11.8871332551        0.8119776142
  C        -0.7649936216       10.0756425145       -0.2934398995
  C         5.0204593716       16.4074762568       -0.1648573167
  H        -1.3304355596       12.3539706023       11.3470657420
  H        -1.6567398848       13.0578933015       12.7092918552
  C        -2.7329006379       14.1168786134       11.2712400578
  H         3.8859743489       12.6950253666       12.1429589586
  H         3.4658376534       13.0651183190       13.7309921771
  C         4.7806915980       14.4236821281       13.2384739872
  C         0.1121549217        8.3032788463       15.5536345036
  C        -0.1605088391       10.5807707932       16.4150727992
  H         0.1061272667        9.6666641685       -0.7490577305
  H        -1.4438794775        9.2641693768       -0.0479489542
  C        -1.5873697598       10.9375777625       -1.2940090335
  H         4.8547832294       17.4759562422       -0.1489686781
  C         5.2494273734       15.9898365414       -1.4348486681
  H        -2.5705396470       15.0650661490       10.6891460095
  H        -3.2422149485       14.4317649327       12.1862851298
  C        -3.6366365743       13.1405344844       10.4703589441
  H         5.2090829704       14.8711084164       12.2845169448
  H         4.3704494384       15.2555945941       13.7915228985
  C         5.8008771261       13.6787866887       14.0598234051
  N         0.3422987805        7.3057332220       14.5657247792
  C        -0.1433852708        7.7361282216       16.7622937196
  C        -0.5278687598       10.0313560956       17.6629120314
  H        -0.2134845901       11.6460624245       16.2322871064
  H        -0.8884491064       11.6364553801       -1.6745566071
  H        -2.5165153803       11.3959252496       -0.8340453358
  H        -1.9848968079       10.2872540954       -2.1012770812
  S         5.5065110296       14.3278733610       -1.8961796183
  C         5.3571457987       17.0605203956       -2.5192681954
  H        -3.1461382519       12.4920135247        9.7406835854
  H        -4.1781933714       12.4815974601       11.1218599741
  C        -4.4328199031       13.7876712254        9.4040532487
  H         6.0719419041       12.8374171338       13.5967804207
  H         5.2664070205       13.6350981771       15.0492381556
  C         7.1920538842       14.3511924634       14.3360540695
  S         0.3383291808        5.8227454458       15.2662669372
  N        -0.1530546794        6.3390950374       16.7380473270
  C        -0.4689387325        8.4889357388       17.9181698877
  H        -0.8004659695       10.6712636363       18.3933728590
  C         5.7180526368       15.0309406120       -3.4312062162
  N         5.7216775198       16.4082745612       -3.6147058379
  O         5.1627999248       18.2280267474       -2.3171196516
  H        -4.7159315878       14.7920143415        9.7325984356
  H        -3.7862963642       13.6346624013        8.4608901137
  C        -5.6583183499       13.1644772619        8.8825191513
  H         8.0046663307       13.6019406096       14.5179252024
  H         7.5456859031       14.9688161495       13.4912344887
  C         7.1821692864       15.2806149575       15.5802905879
  C        -0.8019254498        7.7947080953       19.1096149385
  S         5.9881010420       14.1510222781       -5.0063422822
  C         5.8388548706       17.1175999124       -4.9316117782
  H        -5.8290065211       13.1165355260        7.7633421414
  H        -5.7291608446       12.0843053167        9.1020752766
  C        -7.0129251296       13.7983915804        9.4580108294
  H         8.1210823029       14.9766499675       16.1035889528
  H         6.4316785498       15.0663773047       16.2796210452
  C         7.2405714728       16.7954748673       15.0610680463
  H        -0.4942827858        6.7385264698       19.0542547398
  C        -1.1864959631        8.1144486038       20.3587725405
  H         6.5735973304       16.6996226454       -5.5451381924
  H         6.1598377103       18.1680556702       -4.6797067552
  C         4.3674176148       17.0223801549       -5.5035879905
  H        -7.6338019757       13.4427764513        8.6617931570
  H        -7.1640705660       14.8451215201        9.5613395570
  C        -7.3227963384       13.2837003997       10.8828325890
  H         6.6327548734       16.8908225799       14.2362504326
  H         6.8603171837       17.2996155664       15.8797920538
  C         8.6243644959       17.2981095177       14.8476762086
  S        -1.6615556277        9.6835402924       20.9390538337
  C        -1.2855809403        7.0399488035       21.3996237377
  H         4.3378708166       16.1834581322       -6.1112878989
  H         4.1800731917       17.8824434640       -6.2455132872
  H         3.5232392672       17.1503650251       -4.7919001162
  H        -7.2642935213       12.2169861908       10.7148513047
  H        -6.7619867576       13.6984792335       11.6547443311
  H        -8.3429519081       13.4647198788       11.1941827909
  H         8.6041037543       18.2565983319       14.2678143008
  H         8.9535704618       17.5725408636       15.8540804553
  H         9.2827778306       16.5761530798       14.4341664757
  C        -2.2071362255        8.8624557286       22.3872014170
  N        -1.9922745704        7.5470066222       22.4232486962
  O        -1.0634484015        5.8824701336       21.2444941481
  S        -2.6875811042        9.7511224711       23.8975487445
  C        -2.1337607631        6.7550431981       23.6316985184
  H        -2.1786907565        5.6835520669       23.2968069697
  H        -3.0883617970        6.8915528409       24.1792057910
  C        -0.9456114739        6.9025560166       24.4588636115
  H        -1.1219237684        6.6766352791       25.5437886311
  H        -0.6874926324        7.9518092745       24.5318215802
  H        -0.0846466964        6.1902223853       24.2254164587
