352
i =
  H        -3.6003689159       14.8117288428       16.6722746270
  C        -3.1365288901       13.8234890121       16.5281461797
  H        -3.9751624157       13.2755310040       16.8188395711
  C        -2.0673769292       13.3706643612       17.5691577042
  C        -2.9442174216       13.3858444834       15.0971566906
  C        -2.3957167571       13.5384421407       19.0006063989
  H        -1.9739390864       12.3306505850       17.4854990814
  H        -1.1514105983       13.8158386935       17.3773736920
  H        -2.1855489549       14.0520421609       14.7201602345
  H        -2.5530081331       12.3982792505       14.8416232157
  H        -3.7724935245       13.5970513411       14.5102614800
  C        -1.2351685372       13.3952982788       19.9137335131
  H        -3.1936366378       12.7960974531       19.2640334575
  H        -2.8052068836       14.5541544866       19.1368547677
  C        -1.6870221703       13.7838453912       21.3184493687
  H        -0.9009567945       12.3720196354       19.8460817437
  H        -0.3657820128       14.0379778355       19.6110469506
  C        -0.8083336819       13.0331319728       22.3321306489
  H        -2.7095525884       13.5462876075       21.5897322303
  H        -1.6638646063       14.8215221952       21.5245930787
  C         0.4302253355       13.8343919229       22.6333715786
  H        -1.3242804827       12.8910236789       23.2465527097
  H        -0.5924978549       12.0378534065       21.9338838365
  C         1.4633278632       13.0252800891       23.4121807431
  H         0.8330324953       14.2889786594       21.7875522788
  H         0.2108091841       14.5494737603       23.4122657133
  C         1.8142658365       11.7425667500       22.7380539566
  C         0.9585971373       12.3116965445       24.6218262518
  C         2.6645459706       13.9407778071       23.7003781139
  C         1.3953318557       10.6329414185       23.4207980739
  C         2.2263492486       11.4253790315       21.4742382365
  C         0.9124969232       10.9390953717       24.6313856056
  C         0.4930812202       12.9279382902       25.7821967697
  H         2.6917060582       14.6117457247       22.8826590025
  H         2.4231553084       14.5327451352       24.5958629398
  C         4.0989357699       13.3338056506       23.7887505205
  S         1.5948882081        9.1413948792       22.5018170242
  C         2.2642255178       10.1157821013       21.2457738731
  H         2.5309886057       12.2260751481       20.8379751126
  C         0.4454266093       10.2646465845       25.7366827888
  H         0.4351036530       13.9853481679       25.7723716790
  C        -0.0853697289       12.2653331053       26.8410770984
  H         4.3862287271       12.6507545979       22.9761591201
  H         4.1154097992       12.5973063618       24.5660907370
  C         5.1446453690       14.3742441545       24.0544435583
  C         2.7280703973        9.4893099880       19.9208632836
  C        -0.1413375968       10.9204128824       26.8653652123
  H         0.5351715101        9.1670354619       25.8569588644
  C        -0.5116176672       12.6859471883       28.0788133228
  H         5.8730252038       13.9813267278       24.8019331462
  H         4.7122371774       15.1303287757       24.7112132640
  C         5.8546174043       14.8863179632       22.7755140477
  C         2.7978018049        8.1315670908       19.6525936517
  C         3.1503043192       10.3756529778       18.8137384861
  C        -0.5518994747       10.2175411639       28.1660157802
  C        -0.7003121406       11.5893985343       28.9175829788
  S        -0.7542821806       14.1768058502       28.8374588802
  H         6.3003308959       15.7443394288       23.0863891791
  H         5.0815501485       15.2064124780       22.0596799784
  C         6.8693017993       13.9133197261       22.2940658735
  N         2.4721392927        7.1753014484       20.5558051365
  C         3.0049191185        7.6157678421       18.3742401591
  C         3.3496403911        9.8659202343       17.5287718118
  H         3.1906815172       11.4310139256       18.9499015812
  C         0.7029203100        9.4035128302       28.5685665565
  C        -2.0069122547        9.4145483032       27.9933681480
  C        -0.8823174034       11.9825576331       30.2477360982
  C        -0.9215417419       13.3381361244       30.3654958592
  H         7.8430895616       14.3760346420       22.2731898132
  H         6.9569277378       13.0078236071       22.9328375999
  C         6.4996546519       13.1576654327       20.9694282549
  S         2.3641418104        5.7325041302       19.8343254486
  N         2.7653022454        6.1863403660       18.3249622816
  C         3.2891772687        8.3731949367       17.2633844211
  H         3.6899910858       10.5695452147       16.8101601990
  H         0.8017852088        8.4883756516       27.9966260370
  H         0.5416342797        9.0283128328       29.5888157997
  C         2.0680719964       10.1404205593       28.5562028688
  H        -1.8136381322        8.5307446520       27.4238944942
  H        -2.3625237447        9.0877878891       28.9231604158
  C        -3.1216566153       10.2998942469       27.4653943323
  H        -1.1186881152       11.2750242015       31.0222894491
  C        -1.2884375776       14.1011724942       31.5539526580
  H         5.6406299176       13.3959213770       20.4232089997
  H         6.4602879708       12.1142354984       21.3498270786
  C         7.7423468087       13.1825450865       20.0809775754
  C         3.3485847981        7.7352437286       15.9798442301
  H         2.6183865144        9.6728348500       27.7284665715
  H         1.9938806933       11.1925912460       28.3365617866
  C         2.9358192869       10.1067853964       29.8558765724
  H        -2.6946240210       10.9019647675       26.6916680826
  H        -3.4096473625       11.0271808438       28.2839492826
  C        -4.3461493925        9.4775957651       27.0909184661
  C        -1.4681114592       15.4853087021       31.6860575776
  C        -1.5782924640       13.3340881643       32.7484874619
  H         8.6873512838       13.4712702362       20.5952175224
  H         8.0120816533       12.1328839807       19.7271064212
  C         7.5793778366       13.9826607483       18.8458336574
  H         2.9948884259        6.7742895756       15.9966076955
  C         3.5903298047        8.1888257504       14.7250988841
  H         2.7668355308        9.1445806599       30.3154387980
  H         2.5379129225       10.8409729477       30.5249539806
  C         4.5066676161       10.2432838443       29.6262849000
  H        -4.1137305665        8.9932413322       26.1325640976
  H        -4.5362131958        8.7074564961       27.8486558220
  C        -5.5651995673       10.3065706511       26.8610233108
  N        -1.2526658418       16.3945223355       30.6409346989
  C        -1.7255634562       16.1424413665       32.8958951084
  C        -1.9019589800       13.9736759097       33.9449445294
  H        -1.5709463470       12.2590348576       32.7869168641
  H         7.3608469878       13.3977161197       17.9980898799
  H         6.8026112129       14.7305812830       18.8407259219
  H         8.4643029510       14.5757513991       18.7221567774
  S         4.0058950500        9.7859326879       14.2903424589
  C         3.6424064152        7.1243352053       13.6494461359
  H         4.6263324370       10.8548102072       28.6969846147
  H         4.8814382686       10.9580381058       30.4539768278
  C         5.2720402729        8.9639337254       29.4072572234
  H        -5.1744335338       11.1532453403       26.2804934666
  H        -5.9160162215       10.5283713339       27.8907958918
  C        -6.6894912445        9.4763255981       26.1533360986
  S        -1.2816214997       17.8702141917       31.1797099315
  N        -1.7541038499       17.5310200522       32.7278125906
  C        -2.0293775671       15.4186213259       34.0583431990
  H        -1.9109410666       13.3905738037       34.9469353290
  C         4.3657890721        9.0451481914       12.7145947427
  N         4.2050189692        7.6681849903       12.5717020515
  O         3.4975017943        5.8946298076       13.8754801129
  H         6.2951285343        9.1671093243       29.0190458890
  H         4.6947905557        8.5942830198       28.5663735828
  C         5.1871526166        7.9845338263       30.6185111453
  H        -6.1945321399        8.8383695672       25.3771477106
  H        -7.1198625131        8.7777740206       26.8282478025
  C        -7.7447889318       10.3530425673       25.5640121271
  C        -2.3536471090       16.0845633514       35.2435306673
  S         4.7496005142       10.0269409694       11.2648726876
  C         4.5749858237        6.9608393156       11.4261373806
  H         4.9534758963        8.4964994461       31.5626963642
  H         4.2254823544        7.3745159557       30.4378220564
  C         6.3379406990        6.9610085402       30.6745418548
  H        -7.4410793063       10.7446797457       24.5208800445
  H        -7.7983033869       11.3092657261       26.1304143345
  C        -9.1833926911        9.6993738319       25.4113090802
  H        -1.9578174004       17.0828474905       35.3275832723
  C        -2.9369818672       15.7086664055       36.4120069568
  H         5.4493352117        7.4835884592       10.9895953172
  H         4.8698866618        5.9403917436       11.6569904502
  C         3.3798097820        7.0303716735       10.4650093691
  H         7.2689618466        7.5745642891       30.5698630743
  H         6.2918534713        6.2950897809       29.7402871423
  C         6.3685838466        5.9587400217       31.8521960696
  H        -9.6616755907        9.8874521443       24.4188828257
  H        -8.9828781892        8.5694898365       25.4607139437
  C        -9.9598891813       10.0568426602       26.6478287681
  S        -3.5373245376       14.1410334169       36.7390041784
  C        -3.1102806279       16.6434986511       37.5180330137
  H         3.1572615235        8.0168086738       10.0192991040
  H         3.5396494226        6.3081093786        9.6479814712
  H         2.4175597885        6.7357316715       10.9341274069
  H         6.9575248073        5.0450328826       31.5644777146
  H         5.3826140065        5.5530856226       32.0656277002
  H         6.7606846580        6.3173019767       32.7496485409
  H       -10.3130870284       11.1247903858       26.5770220037
  H        -9.1783254660       10.0204675788       27.4004449611
  H       -10.8059741176        9.4321971272       26.9197006558
  C        -4.1104691045       14.7985449497       38.2721797231
  N        -3.8759422677       16.0995937492       38.4837867300
  O        -2.5416227887       17.7483743249       37.5313819384
  S        -4.9287482397       13.8272365010       39.4918140407
  C        -4.0510634474       16.7684294070       39.7589172510
  H        -4.3047113992       17.7946779004       39.5043765081
  H        -4.9496087131       16.4411848668       40.3579863344
  C        -2.7448509956       16.7483437675       40.5753763698
  H        -2.7109043599       17.4711594936       41.3851199469
  H        -2.4830280491       15.8012848318       41.0817273380
  H        -1.8379739247       17.0390257788       40.0542718792
  H         7.0596641914       11.3648746780        3.2353743021
  C         7.6629266721       10.5036533043        3.5062755339
  H         6.8799024269        9.7531152116        3.6460257396
  C         8.4332926155       10.5801319480        4.8404742953
  C         8.5922465504       10.0923360564        2.2638234353
  C         7.4169126638       10.7124964868        5.9948044798
  H         9.1432722444        9.7652771491        4.9553306341
  H         8.9598477676       11.5272908036        4.7808612500
  H         9.5028716857        9.7959103675        2.6944198277
  H         8.8123441194       10.9752665433        1.5944045499
  H         8.2798927272        9.2481532596        1.6891653239
  C         7.2899436700        9.5361718987        6.8926662401
  H         7.5614091478       11.6233143327        6.5884224954
  H         6.4878826247       10.8109897424        5.4693105671
  C         6.2662023771        9.6344718785        8.0306746882
  H         8.2499886576        9.4188085749        7.5045359842
  H         7.1381939652        8.6203953046        6.3762820968
  C         5.0397747843       10.5406780653        7.7598627073
  H         6.7615122355       10.0633522287        8.8749686684
  H         5.8540887741        8.6459342894        8.3483968136
  C         3.9846187468        9.8825175404        6.9214353533
  H         4.6822556614       10.7669883543        8.6806391387
  H         5.2657669985       11.4819591808        7.2919782986
  C         2.6594437257       10.6495342786        6.6478574811
  H         3.6193802382        8.8618969256        7.3080603342
  H         4.4792426261        9.7358828791        5.9310919670
  C         3.0465869943       11.9842902894        5.9371695437
  C         2.1917758145       11.3784138602        7.8119807387
  C         1.4519727638        9.9390694064        5.9308321431
  C         2.8217764040       13.1102236477        6.7334051747
  C         3.5881748062       12.4169043178        4.7325515830
  C         2.2191579702       12.7617326086        7.9250518632
  C         1.8201315702       10.7376809737        9.0179571195
  H         1.9169286308        9.4205430896        5.0446473528
  H         0.8885680321        9.2648249309        6.5780782117
  C         0.4156970733       10.8363409863        5.2908446243
  S         3.2824199411       14.6301768483        5.9895172947
  C         3.8045347489       13.8117840034        4.6591798784
  H         3.8813200276       11.6930354646        3.9969915137
  C         1.9392066046       13.3825297518        9.1335937792
  H         1.9085526307        9.6336144772        8.9496692350
  C         1.4950258021       11.3701480181       10.2062998825
  H         0.9031064494       11.6806781217        4.7945365140
  H        -0.2467250047       11.2664740143        6.0632901443
  C        -0.5062832016       10.0531812863        4.3107925178
  C         4.2670532564       14.5091284836        3.4470073125
  C         1.5121925348       12.7230763826       10.3068016094
  H         2.1095095217       14.4138443143        9.2023546958
  C         1.0982592040       11.0087793381       11.4802684758
  H        -1.3473468875       10.7628648832        4.1677232093
  H        -0.9321681876        9.1520675418        4.8428952298
  C         0.0515445981        9.7953381419        2.9119976674
  C         4.3628583117       15.9140998845        3.2132665580
  C         4.9223170308       13.6557901915        2.3982586092
  C         1.1508950534       13.4404765513       11.5897779036
  C         0.8869816155       12.0937080784       12.2962608200
  S         1.0074096091        9.4365844152       12.2595598833
  H         0.7783446468        8.9897106158        2.7876667694
  H         0.6189176786       10.6761837444        2.6790689965
  C        -1.1034190903        9.5326905069        2.0082369180
  N         4.0449923562       16.8709846148        4.2485257707
  C         4.7207553919       16.4837126224        1.9978544266
  C         5.1747064210       14.2339798787        1.1099760457
  H         5.1624779885       12.5820424972        2.5370397798
  C        -0.2064744682       14.2118521591       11.5304893883
  C         2.3600522954       14.1620282981       12.1327681165
  C         0.4827395280       11.6329166309       13.5178402231
  C         0.7079711199       10.2929252853       13.6829779971
  H        -1.8677333933        8.9486062596        2.6327253719
  H        -1.5442324848       10.4999944591        1.6848832409
  C        -0.8101916695        8.7333079374        0.6871179092
  S         4.1686825888       18.3448135649        3.5350684265
  N         4.5885039732       17.8558127715        2.0270011169
  C         5.0306378005       15.7253323809        0.8442231761
  H         5.5032837843       13.5981473894        0.2918294538
  H        -0.0935641689       15.1111653127       10.9413519464
  H        -0.5116325591       14.4705145348       12.5667778619
  C        -1.3302777358       13.3876984130       10.9319217728
  H         3.2480991454       14.1342486942       11.5383061483
  H         2.0898557835       15.1964600845       12.1271135802
  C         2.6688881668       13.8876400663       13.6324786229
  H        -0.0078634322       12.3426897329       14.1470141532
  C         0.3647251713        9.5387409967       14.9677992163
  H        -1.6627937010        8.1934190192        0.3525661601
  H        -0.0557479029        7.9767703101        0.8189026722
  C        -0.2622103528        9.5908919125       -0.4426925699
  C         5.2718098231       16.3395795929       -0.4285655989
  H        -1.0618516066       13.0430992234        9.8894318760
  H        -1.5159490225       12.4258444972       11.4212107265
  C        -2.7011757057       14.1396111066       10.7630215595
  H         2.6803511986       12.8452514029       13.8096466697
  H         1.8837103086       14.3771942158       14.1711922276
  C         3.9799851572       14.5263738462       14.0147106304
  C         0.1864451830        8.1829455736       15.1052463463
  C         0.4154453165       10.3801009247       16.1827011442
  H         0.4376860085       10.3429958837       -0.0057857565
  H         0.4386030534        9.1041359467       -1.0883830861
  C        -1.4294501298       10.2485339206       -1.3399052485
  H         5.3777942849       17.3988091905       -0.3649470793
  C         5.6678842098       15.8378891205       -1.6323358762
  H        -2.5305594530       15.1501078964       10.4974409703
  H        -3.2833604324       14.0961547807       11.7307831648
  C        -3.6247864393       13.3280746535        9.8381482979
  H         4.1018561827       15.5340412039       13.6989699055
  H         3.9865052386       14.6200789700       15.0726027560
  C         5.1053241070       13.6206268097       13.6491680309
  N         0.3467995958        7.1848274202       14.0865064631
  C         0.0519449285        7.6525941339       16.3928972443
  C         0.0193631435        9.8286613066       17.4238079078
  H         0.3060672699       11.4435821087       16.1478385789
  H        -2.2538739904       10.5948802317       -0.7784306733
  H        -1.7772379622        9.4706944808       -2.0010155552
  H        -1.1400025005       10.9381669433       -2.1345932933
  S         5.9398160117       14.2687866229       -2.2017566558
  C         5.8140900014       16.8715480785       -2.7014952619
  H        -3.3730200950       13.4120206455        8.7939114599
  H        -3.5985316769       12.2762816227       10.1214509235
  C        -5.0562687598       13.6758310506        9.9184090349
  H         4.9183567104       13.0319550259       12.7140438966
  H         5.3420388957       12.7995331403       14.3831817885
  C         6.4911347725       14.4044716270       13.4761100280
  S         0.1771624093        5.7407184796       14.8116270979
  N        -0.0143569097        6.2461648301       16.3600731403
  C        -0.0854704873        8.3989707742       17.5961520821
  H        -0.0256758311       10.5241950229       18.2534987098
  C         6.1781790029       14.9402894432       -3.8273608674
  N         6.1158519874       16.2799071140       -3.8797310156
  O         5.6797554053       18.0418987208       -2.5582953565
  H        -5.3607113558       13.6549923324       10.9696495803
  H        -5.0558637868       14.7230607279        9.5464929907
  C        -6.0034741537       12.6947289240        9.0940946332
  H         7.2743370234       13.7228245895       13.1966125469
  H         6.4262086590       15.1943392299       12.7293275467
  C         6.9490053211       15.0579743573       14.7690094959
  C        -0.4230730727        7.7570713382       18.8298423115
  S         6.8211365666       14.1361355316       -5.2414978296
  C         6.0269481997       16.9941817633       -5.1352266937
  H        -5.3238645267       12.4309497602        8.2391648945
  H        -6.2011697200       11.7308415760        9.6708472167
  C        -7.3416942924       13.3581126784        8.7502147501
  H         6.9762216323       14.2847920584       15.6130610437
  H         6.2436243388       15.8413031087       15.0042243411
  C         8.3182413307       15.8483935721       14.7073213883
  H        -0.3199495041        6.6755858379       18.7274521225
  C        -0.8743021656        8.1389822471       20.0286699060
  H         6.5798011808       16.4268550168       -5.9403795845
  H         6.5474637142       17.9776937943       -5.1350134502
  C         4.5582835218       17.2400902740       -5.5748412741
  H        -7.9597365732       12.7508534437        8.0773736342
  H        -7.0824904846       14.1927499986        8.1594608367
  C        -8.1065547363       13.5767163978       10.0144582790
  H         8.4909619037       16.3050070852       15.6274575652
  H         9.1763204950       15.1945521476       14.5227712684
  C         8.4227398800       17.0367767975       13.7055451871
  S        -1.5198939397        9.6769846495       20.3758629853
  C        -1.0273137007        7.0961424650       21.0766266806
  H         4.3177104329       16.7097278114       -6.4438613593
  H         4.4813463651       18.3598527713       -5.9214281478
  H         3.7441074443       17.0280874701       -4.8666906033
  H        -9.0126573362       14.0310665415        9.6451604391
  H        -8.3758099299       12.6193908369       10.5070022738
  H        -7.6372839620       14.2261423222       10.7530450083
  H         8.1442309350       17.9762930953       14.2039143109
  H         9.4398236575       17.1525021214       13.2924716685
  H         7.6700805664       16.8270057082       12.9250907970
  C        -1.9063010356        8.9954196931       21.9289255009
  N        -1.7383850625        7.6647788575       22.0536368457
  O        -0.6287599169        5.9497519845       21.0676620385
  S        -2.8572637877        9.8815096421       23.1496164823
  C        -1.9058058039        6.9015544111       23.2682745504
  H        -2.0564681854        5.8656108157       22.9765471389
  H        -2.8870601850        7.1484011850       23.6938218367
  C        -0.8045265316        7.1855727141       24.2824192006
  H        -0.7273787548        6.4202343626       25.0916895060
  H        -0.9605390472        8.0948690888       24.7536084171
  H         0.2163113728        7.2165712698       23.8956863686
