352
i =
  H        -3.9640989950       14.4577725516       15.9625133724
  C        -3.5349325225       13.4394988298       16.1002184953
  H        -4.3561831319       12.7890584171       16.4101021114
  C        -2.5751294141       13.5089720202       17.2998344150
  C        -2.8899870771       13.0648285834       14.7881282794
  C        -3.3102711657       13.5348572134       18.6253263001
  H        -1.8926329817       12.6117212708       17.3081209726
  H        -1.9954631027       14.4386677624       17.3071969108
  H        -3.6690739787       12.5412356772       14.1492722775
  H        -2.6070796427       13.9819011094       14.3040198452
  H        -1.9746984227       12.4810501453       14.8421635841
  C        -2.1622111142       13.5734947682       19.6596221469
  H        -4.0676876533       12.7138437473       18.6734087183
  H        -3.8695230018       14.4671534391       18.8582232260
  C        -2.5492622251       13.4989163091       21.1276276898
  H        -1.4250443734       12.8010770818       19.3485613386
  H        -1.6962111792       14.5112475556       19.4610454091
  C        -1.4093507448       12.9884384760       22.0552654940
  H        -3.3621186476       12.7246927452       21.2669405848
  H        -2.8666551199       14.4862171136       21.4043307670
  C        -0.3748384177       14.0107288315       22.3398826879
  H        -1.7822528207       12.5717899578       23.0208883019
  H        -1.0688623335       12.0105704195       21.6277176496
  C         0.8647680826       13.3770739569       22.9842377492
  H        -0.1007454524       14.3592565075       21.3243663024
  H        -0.6990985426       14.8921666250       22.9082613269
  C         1.3912876076       12.0736188555       22.3037583474
  C         0.5835904529       12.5792305555       24.2767515428
  C         1.9565801853       14.4458436041       23.3035639710
  C         1.3139178383       10.9354757148       23.1484095950
  C         1.8985134467       11.7498854266       21.0234499416
  C         0.8659246792       11.2483398896       24.4090684437
  C        -0.0146845462       13.0574405909       25.4042806572
  H         2.1717464086       15.0436066597       22.5021398345
  H         1.6538886854       15.0493034204       24.1383263209
  C         3.3079898323       13.8443535553       23.7194228391
  S         1.6653641134        9.5200134347       22.3326970167
  C         2.0652664207       10.4277134371       20.8530164050
  H         2.0950130122       12.6255258576       20.3325236022
  C         0.5341343254       10.5465520258       25.5565220092
  H        -0.3452274793       14.0879955125       25.4734105536
  C        -0.1393551174       12.4013091599       26.6001575462
  H         3.7098717863       13.1574771512       22.9955415833
  H         3.1666206736       13.2493196978       24.6054428218
  C         4.4000378009       14.8543117244       24.0343774663
  C         2.5514700456        9.7349172693       19.5917644529
  C         0.0639808706       11.0684420868       26.7305059041
  H         0.6293699630        9.3974790815       25.5786550753
  C        -0.5790587816       12.7961095694       27.8453956873
  H         5.1923546149       14.5016771438       24.6427042721
  H         4.0890417696       15.7218184046       24.5839698595
  C         5.0304219010       15.3664224183       22.6951854338
  C         2.4764131366        8.3546923852       19.3427768404
  C         3.1883115604       10.5391661941       18.5022414843
  C        -0.3078615163       10.3544439441       27.9488193772
  C        -0.6553770380       11.6709241722       28.6778676979
  S        -0.7838120513       14.2998168533       28.5614849488
  H         5.3422905700       16.3884639104       22.8370450280
  H         4.3966993623       15.2574732065       21.7759645334
  C         6.4044036820       14.6654339124       22.3970320271
  N         1.9673591508        7.4178432048       20.2282316854
  C         2.8227212711        7.7520822687       18.1667711763
  C         3.4074665065        9.9092885244       17.3238437950
  H         3.3388654298       11.5985113531       18.4901935404
  C         0.9075390424        9.6329389996       28.6071996647
  C        -1.4723530895        9.3379749558       27.6880273074
  C        -1.1044739272       12.1338403730       29.9360487449
  C        -1.0674088613       13.5053456954       30.0066097766
  H         6.9532527504       15.3820670791       21.7979093698
  H         6.9711002827       14.5512946724       23.3105620204
  C         6.4624523419       13.3015190668       21.8383194738
  S         2.1902545268        5.8818093785       19.6973647285
  N         2.5922946188        6.3656543780       18.2382024622
  C         3.1619044414        8.5120115179       17.0673275991
  H         3.8098238841       10.5477941036       16.5262790661
  H         1.2713724234        8.7418535891       28.0545939178
  H         0.6825026766        9.4107497600       29.6465701225
  C         2.0665712554       10.5744466281       28.8473081948
  H        -1.1795825236        8.5164141467       27.1247795320
  H        -1.7423450418        9.0699321078       28.6685314776
  C        -2.6995195772       10.0966348453       27.1485866322
  H        -1.3665626053       11.3977635986       30.6476586256
  C        -1.2926292828       14.2775944431       31.2532975293
  H         5.8216480894       12.5642455448       22.3164313902
  H         7.4526538505       12.8449221176       21.9433930439
  C         5.9795073101       13.2104253633       20.3462654064
  C         3.3367691402        7.8650316457       15.8134217618
  H         2.3784826836       10.9312543018       27.9040479691
  H         1.6772279491       11.3547240065       29.5059171660
  C         3.2034697632        9.8021775088       29.5677072421
  H        -2.6129994613       10.4540930959       26.1401908354
  H        -2.9210932863       10.9629613550       27.7419262876
  C        -4.0130168940        9.2783229103       27.2396651028
  C        -1.3936226608       15.6735859330       31.3445117242
  C        -1.4279505432       13.5193869684       32.5722649697
  H         5.8026745519       12.1176437751       20.1797457131
  H         4.9896875052       13.6848774637       20.3681678773
  C         6.8797764003       13.7446337176       19.2264968199
  H         3.3871054121        6.7522062708       15.7651626117
  C         3.6307434305        8.2804846818       14.5509755409
  H         3.5791895682        8.9691718032       28.9614787803
  H         2.7566907430        9.4108097529       30.5112407403
  C         4.2229012121       10.7702734061       30.2321388124
  H        -3.9602759711        8.5497845729       26.4735075828
  H        -3.9523731186        8.8516600744       28.2089229745
  C        -5.3016533119       10.1544523703       27.1516331891
  N        -1.2416457214       16.6488411128       30.3006072731
  C        -1.6904401046       16.2671782045       32.5791371719
  C        -1.8825895362       14.1139107666       33.7199504882
  H        -1.4243157749       12.4964252213       32.5748663883
  H         7.8606699418       13.8904624099       19.6349808714
  H         6.9794757865       13.0528255595       18.3434875734
  H         6.5296151778       14.7851794597       18.9964172938
  S         3.9955567716        9.8655011220       14.1398598519
  C         3.5954026563        7.2940351715       13.4307295393
  H         4.3540364116       11.5779769666       29.5308470739
  H         3.7062775115       11.1349562459       31.0997836563
  C         5.6579616678       10.2635010530       30.6428922634
  H        -5.1855895495       11.1094356808       27.6179423589
  H        -6.1532025432        9.7325773936       27.7793446425
  C        -5.9078023830       10.1453658188       25.7401805120
  S        -1.2903759373       18.1050592216       30.9998722873
  N        -1.7062510218       17.6731673040       32.4569204387
  C        -1.9995462436       15.6452910807       33.7952563311
  H        -2.1208075359       13.4281311142       34.5154388991
  C         4.0463569212        9.2652549891       12.4753430788
  N         3.9896215568        7.9012031870       12.3653168958
  O         3.2976195232        6.1198176380       13.5163108537
  H         6.0969255003       10.9724522575       31.3621610455
  H         6.3398283082       10.2901452108       29.8110242449
  C         5.6228124746        8.9140514834       31.3248170093
  H        -5.0527089324       10.4071170747       25.0197725916
  H        -6.2747176472        9.1299957876       25.5112089379
  C        -7.1224222730       11.0624850616       25.4715183901
  C        -2.3883103645       16.3943185638       34.9148919090
  S         4.3453977704       10.1684879427       11.0052271028
  C         4.1240425778        7.1728331284       11.0606175260
  H         6.1119950535        9.0836147357       32.2656720803
  H         4.6420948753        8.6261070858       31.6386444248
  C         6.4077870776        7.7706071586       30.6685222254
  H        -6.7570755441       12.0259992118       25.1571393776
  H        -7.6709688559       11.0416011874       26.4169805936
  C        -8.1135479948       10.5664455146       24.4342207839
  H        -2.3101043763       17.4298582985       34.7176231361
  C        -2.9134686089       16.1951549354       36.2173379636
  H         4.9037257176        7.6804932487       10.5423512143
  H         4.4920208320        6.1302675235       11.1429964931
  C         2.8180080260        7.0865625979       10.2645602582
  H         7.2982154288        8.2090556877       30.3164070606
  H         5.8497053947        7.3115292059       29.8298910813
  C         6.7796365463        6.6967448994       31.7554259711
  H        -8.3677908169       11.3839444963       23.7441560954
  H        -7.6860185590        9.7084999244       23.9297646522
  C        -9.4436574526       10.2542160084       25.1326355497
  S        -3.4076111847       14.6905294850       36.8461974439
  C        -3.1278021393       17.3635681730       37.0709544591
  H         2.9965122617        6.5689642464        9.3563221606
  H         2.1241451441        6.4939038575       10.9260073405
  H         2.3711921587        7.9928760312       10.0085107288
  H         5.9738297252        6.4784399112       32.4090810131
  H         7.5742941691        7.1601195705       32.3589129201
  H         7.0915128109        5.7784434897       31.1352486155
  H        -9.9675415702       11.0817887547       25.6313622068
  H        -9.4076758996        9.4404437780       25.7936787098
  H       -10.0730702386        9.8239676419       24.3229824226
  C        -3.7309112037       15.5854144655       38.3012033964
  N        -3.5609220781       16.9783862997       38.2265701384
  O        -2.8082680643       18.5331763355       36.7916648377
  S        -4.5827731828       14.9743137675       39.6931599265
  C        -3.6552553073       17.8984749568       39.3731642729
  H        -4.0066729072       18.8086247682       38.9105609542
  H        -4.3506801846       17.6149020155       40.1262865358
  C        -2.3394683683       18.1589885437       40.0646025175
  H        -2.0313268555       17.2021273054       40.4219560305
  H        -1.6157380098       18.4657485978       39.4354746201
  H        -2.4784498924       18.8537090801       40.8568623405
  H         7.1214657020       11.3883577176        2.9451998816
  C         7.8308445314       10.5739120562        2.9838218680
  H         7.1818182528        9.6579737133        3.1322367065
  C         8.7083283240       10.6412917756        4.2752638296
  C         8.6278147522       10.4693821988        1.7097789703
  C         7.9220650523       10.9408064212        5.5325682335
  H         9.3384824808        9.7286532581        4.3066544783
  H         9.4527468679       11.4193811015        4.0190841404
  H         9.3311140602       11.2432780340        1.5352299867
  H         7.9607108164       10.3870929008        0.8461895060
  H         9.1506830128        9.5655724015        1.6264295218
  C         7.0750854730        9.7161356981        5.9159111383
  H         8.5612659907       11.1706856446        6.3326331962
  H         7.2048750481       11.7084288506        5.3833002697
  C         6.5498453849        9.9418993597        7.3465027847
  H         7.5459961054        8.7140350404        5.7862608960
  H         6.2751942112        9.5915476055        5.2137075859
  C         5.2061236458       10.7057000544        7.4078517535
  H         7.2911489673       10.5282620741        7.8996457915
  H         6.3697329793        9.0286485087        7.9066577422
  C         3.8835047008        9.9409864244        7.0157651887
  H         4.9058764014       11.0153636139        8.4117162287
  H         5.4018925658       11.6483573277        6.8822912608
  C         2.7082623546       10.9069241837        6.8186390902
  H         3.7072828483        9.2972602804        7.8766202136
  H         4.0707080250        9.4176432989        6.0536606752
  C         3.0930045676       12.2721380079        6.0701725618
  C         2.2612842521       11.6492713184        8.0046611670
  C         1.5607914410       10.2228998864        6.0091773155
  C         2.8395055618       13.3725289561        6.8808491938
  C         3.5423296176       12.5590894586        4.7781038831
  C         2.3389740544       13.0020813291        8.0856884983
  C         1.8601561430       11.0286880508        9.1775046253
  H         1.9513852453        9.6640351356        5.1329130296
  H         1.1973016357        9.4212308926        6.6918570383
  C         0.3882102502       11.0384133516        5.5168693148
  S         3.2876443961       14.8082719265        6.1154572621
  C         3.7613055785       13.8849087778        4.6643300307
  H         3.7273718214       11.7898672663        4.0649523743
  C         2.0031149244       13.6005289738        9.2653349551
  H         1.8996284714        9.9449687475        9.2900872149
  C         1.5059906556       11.5528395302       10.3514870971
  H         0.6709815404       11.9594420063        5.1243897613
  H        -0.3048861091       11.1011452988        6.4066077221
  C        -0.5126666698       10.5088097984        4.4093344425
  C         4.3466048817       14.5463538555        3.4207639383
  C         1.5314227802       12.9070081114       10.4313475562
  H         1.9925892278       14.6560812299        9.3205241835
  C         1.1937596863       11.1323442504       11.6145402648
  H        -1.4748377354       11.0442920312        4.2733811714
  H        -0.6410919099        9.4309019732        4.7243056825
  C         0.1437423695       10.4233422613        3.0816340376
  C         4.3603282076       15.9723451074        3.1668567937
  C         4.7287876001       13.6214053358        2.2582911885
  C         1.1433601520       13.5823915659       11.6812475490
  C         0.9539787403       12.2372709344       12.4188745980
  S         0.8783208679        9.6449693554       12.2657050023
  H         0.8790896139        9.6723259640        3.1205019056
  H         0.6823064635       11.3320809484        2.7907122423
  C        -0.8060177520       10.1643787075        1.9175935460
  N         4.0147712513       16.9186513240        4.1336606877
  C         4.6278498745       16.4955112078        1.9454742293
  C         5.0425956122       14.2030777882        1.0075427527
  H         4.7566358840       12.5261208134        2.3324194126
  C        -0.1635957263       14.4112892566       11.5694064404
  C         2.3683482129       14.4090275200       12.2548990319
  C         0.6382309432       11.8326668324       13.7485477745
  C         0.5479755642       10.4784118485       13.8159541664
  H        -1.4395368444        9.3552798090        2.2167204797
  H        -1.5373605312       10.9783125450        1.7066130346
  C        -0.0739396598        9.8320256190        0.5591689890
  S         4.0128647462       18.4093094372        3.4913059160
  N         4.5374812384       17.8889262130        2.0296650032
  C         4.9833957719       15.7431027536        0.8552766346
  H         5.5193332603       13.6320157256        0.2541966117
  H        -0.0225548290       15.2419252697       10.8648276376
  H        -0.4031089996       14.8713174658       12.5261395131
  C        -1.3972044773       13.5321698243       11.1295466241
  H         2.6235651535       15.0966733586       11.5169516771
  H         2.1081762325       15.0723730990       13.0406609363
  C         3.6587359619       13.6675704072       12.7110005866
  H         0.3908941412       12.5589051118       14.5094408266
  C         0.1423235850        9.6477001113       15.0353605454
  H        -0.1122094865        8.7682381015        0.4238520923
  H         1.0062227068        9.9966353937        0.6366710449
  C        -0.6282864940       10.4349743262       -0.6939858520
  C         5.2266675926       16.4962632675       -0.3212439154
  H        -1.1981076578       12.9534374681       10.2665433794
  H        -1.6142763439       12.7703803608       11.8026618727
  C        -2.6037077009       14.3791200099       10.7998347509
  H         4.1516810387       13.0900027296       11.9796182952
  H         3.5075556446       13.0392397271       13.5243352377
  C         4.6195793256       14.6711295993       13.1252939513
  C         0.0288480232        8.2677252589       15.1877691542
  C        -0.1215752961       10.3442404094       16.3279519058
  H        -0.5048835655       11.4497643599       -0.5833578055
  H        -0.0454739006       10.2146354143       -1.6445791157
  C        -2.1339533369       10.2711051723       -0.9533303646
  H         5.0611501310       17.5372969858       -0.2450303194
  C         5.5236714682       16.0900069973       -1.5788839803
  H        -2.1875970628       15.0670947208        9.9983703916
  H        -3.0124572477       15.0597979487       11.5592076462
  C        -3.8311963698       13.5436224585       10.2528619313
  H         4.7943700012       15.3450461021       12.2839442330
  H         4.1994065862       15.2859953252       13.9381019007
  C         6.0025442860       14.0687474711       13.6337461644
  N         0.3646181458        7.3545603404       14.1598118560
  C        -0.2768950357        7.6082858026       16.3720699179
  C        -0.3868292459        9.7420475273       17.5262026131
  H        -0.1697494872       11.3523115323       16.3820848136
  H        -2.7293215345       10.8179412140       -0.2035862278
  H        -2.4737486346        9.2380131176       -1.0277867824
  H        -2.3346490162       10.8374832890       -1.8880060577
  S         5.6873668450       14.4536631063       -2.1273124503
  C         5.5948284499       17.0999740089       -2.6730949534
  H        -3.4988992327       12.6145379124        9.7547866099
  H        -4.3948792976       13.3191876161       11.1172570380
  C        -4.7866122573       14.4421218262        9.4655713376
  H         6.7528269358       13.9203525551       12.8421410350
  H         5.8835517565       13.0029558144       14.0159748111
  C         6.6316451943       14.8558841222       14.8586117032
  S         0.3818743341        5.8160629042       14.7231299304
  N        -0.1727047444        6.1856798621       16.2023182225
  C        -0.5276088613        8.2338356067       17.6118246629
  H        -0.6531475758       10.4193866244       18.3052677658
  C         6.0732244624       15.1982971469       -3.6967914881
  N         5.9743894223       16.5042748903       -3.8310729000
  O         5.3399318139       18.3107630803       -2.4562727531
  H        -5.3055811773       15.0469147020       10.2060265938
  H        -4.2607296185       15.0025114331        8.7570341770
  C        -5.7262006947       13.4135012326        8.6848085743
  H         5.7873767879       14.9660521905       15.5611559883
  H         7.3236891261       14.2321640204       15.2672299605
  C         7.1760762576       16.1039426451       14.3204027669
  C        -0.8330547271        7.3729504343       18.7853630377
  S         6.3860238851       14.2574116429       -5.1219140598
  C         5.8663614724       17.2313343310       -5.0864349289
  H        -5.2439914061       12.9977427463        7.8295642156
  H        -5.9335187490       12.6393317718        9.3960037720
  C        -7.0393876005       14.0050721376        8.3223901161
  H         6.5021844520       16.5687500268       13.5640395923
  H         8.0787795797       15.7254665906       13.7228860771
  C         7.7807570958       17.0195022601       15.2887078072
  H        -0.3546873674        6.4102362180       18.6557039844
  C        -1.4697331169        7.6417935615       19.9722565905
  H         6.4063468915       16.8133161246       -5.9920436310
  H         6.1997114492       18.1853182240       -4.9367696422
  C         4.3685390583       17.1765489510       -5.5820425411
  H        -7.4201636029       13.4651542961        7.4422728609
  H        -6.8706819585       14.9777504456        7.9470615698
  C        -8.0358278474       13.9470752632        9.4353615487
  H         7.5034441649       16.7998882252       16.3112965643
  H         8.8326116107       16.9091245896       15.3059869914
  C         7.3413022839       18.4392426989       14.8171543484
  S        -2.0863922495        9.2087370691       20.3955283566
  C        -1.4410827970        6.6276706152       20.9290902882
  H         3.7963861050       17.7697428056       -4.8853916725
  H         4.0347463970       16.0736558181       -5.6004852688
  H         4.1553958110       17.6610767230       -6.5039260006
  H        -7.8168283952       14.5872928703       10.3217499902
  H        -9.0550667648       14.2038815974        9.1466341070
  H        -8.0667399077       12.9979758481       10.0110877224
  H         7.5558900639       18.6155889262       13.7493378440
  H         6.2957889981       18.5223583627       15.0083782253
  H         8.0218629255       19.1246055313       15.3624182139
  C        -2.3140922015        8.3953739149       21.9633008891
  N        -2.0938945619        7.0668671255       22.0125190246
  O        -0.9658713796        5.4545855952       20.7063739051
  S        -2.8588977050        9.2967344527       23.4048157282
  C        -2.0959012245        6.3522374426       23.2876962842
  H        -2.1356947665        5.3464826012       23.0443875307
  H        -3.0430238201        6.5205949646       23.7124760690
  C        -0.7713007080        6.6216343324       24.1724916626
  H         0.0938788079        6.6804962226       23.5270436917
  H        -0.6778326771        5.7404162324       24.8355400778
  H        -0.8314909094        7.5999516969       24.6778372027
