352
i =
  H        -2.7917539854       15.0215701624       16.0758805688
  C        -2.9024466134       14.0119214796       16.1921171185
  H        -3.9638695089       13.8791507342       16.4817877525
  C        -1.8851054821       13.4033541961       17.1645593517
  C        -2.6786518810       13.3837782538       14.7576070940
  C        -2.4217092026       13.4089463389       18.5533473899
  H        -1.8906415491       12.3583750499       16.7236628440
  H        -0.9273590048       13.9172991755       17.1408579701
  H        -3.3850031332       13.8954234226       14.0889635679
  H        -1.6165288079       13.7345512223       14.5457236008
  H        -2.6769982794       12.3175568815       14.7535219403
  C        -1.3694499766       13.0673971034       19.6564071902
  H        -3.3108352757       12.7272222361       18.5959910720
  H        -2.8514074649       14.4354808678       18.6824418276
  C        -1.9462966943       13.1266087550       21.0778297804
  H        -0.8026070391       12.1001552379       19.5264367553
  H        -0.6665075490       13.8809952404       19.6293462040
  C        -0.9786471130       12.5711984524       22.0971367557
  H        -2.7356612963       12.4298218570       21.0763960155
  H        -2.2609539747       14.1470235073       21.2732513847
  C         0.2601999761       13.4280765949       22.4337507794
  H        -1.4271814871       12.2140653850       22.9964039193
  H        -0.6542334759       11.6596418462       21.6746266673
  C         1.3945690047       12.6768773902       23.2027075296
  H         0.5711259929       13.6973176254       21.4085878407
  H        -0.0028538263       14.3879162797       22.9431410329
  C         1.7481784786       11.3814243280       22.5244236126
  C         0.8157959547       11.9962505377       24.3840970578
  C         2.5827799164       13.6538688462       23.3789660279
  C         1.4329952919       10.2622063448       23.2667428623
  C         2.1779427025       10.9798488624       21.2784391711
  C         0.9505306558       10.7051539076       24.5419154305
  C         0.2421952494       12.6349808768       25.5126102163
  H         2.7251636821       14.0924448089       22.4220498775
  H         2.3070242368       14.4327192409       24.1059027896
  C         3.8987898373       12.8520973731       23.6943322821
  S         1.7050715341        8.7457542035       22.5870005266
  C         2.1706388686        9.6151395155       21.1413482662
  H         2.3957621680       11.8139032157       20.6613462804
  C         0.5152354699       10.1077795143       25.6404174159
  H         0.0015625507       13.7091670988       25.5523825193
  C        -0.1454264168       12.0072715265       26.6522787807
  H         4.1672319028       12.1805991916       22.8660062588
  H         3.8160429374       12.2950415594       24.6291237808
  C         5.0477289553       13.8645682601       23.7039720822
  C         2.6852902872        8.9311200887       19.8871376098
  C         0.0174885025       10.7066637644       26.7918458461
  H         0.7020051314        9.0221795938       25.6854081998
  C        -0.6282472288       12.3705260235       27.9255950548
  H         5.8104040048       13.5903534325       24.4118670000
  H         4.5736123416       14.7614090334       24.1050036696
  C         5.7339484616       14.1040322537       22.2743512161
  C         2.4837313072        7.5453172611       19.5752267256
  C         3.0069972607        9.8130027357       18.7377833049
  C        -0.5289875827        9.9945983415       27.9997140233
  C        -0.9145078167       11.2930914182       28.7006375865
  S        -0.9094155193       13.8880974248       28.7028017489
  H         6.2215093669       15.1331247955       22.2490972666
  H         4.8714720790       13.9694607109       21.5824806646
  C         6.8596931212       13.1033594146       21.9276846874
  N         2.0766985506        6.4836656815       20.4422719194
  C         2.7137774227        7.0490810032       18.2750464332
  C         3.2920553410        9.2973314261       17.4374099002
  H         3.2700581006       10.8802422486       18.8806138372
  C         0.5290350328        9.2184634264       28.8087642834
  C        -1.7357557283        9.1287625245       27.7185002889
  C        -1.2827842816       11.6549433870       29.9776302387
  C        -1.3245565665       12.9912612361       30.1649713697
  H         7.7423549401       13.7579002819       21.8995351763
  H         6.8220504036       12.3297114530       22.6357140612
  C         6.6930209748       12.4877496038       20.4981294483
  S         2.0056057884        5.0633760712       19.5385390498
  N         2.4868266461        5.6984497233       18.1530676151
  C         3.0547335699        7.8586100169       17.1494203605
  H         3.5317053788        9.9824245123       16.6169140275
  H         0.9032957745        8.5257258256       28.0871513497
  H        -0.0090470575        8.5431952005       29.3946704561
  C         1.7886352921        9.8019890098       29.3906814851
  H        -1.6342756364        8.5688062445       26.8280108127
  H        -2.0705975835        8.5402749134       28.5706139778
  C        -2.9904648124        9.9669397707       27.3702927518
  H        -1.3666836707       10.9193835559       30.7569616073
  C        -1.6423062704       13.6114386376       31.5076313302
  H         5.9464378933       11.6644637607       20.5967510171
  H         7.7027887148       12.2443825620       20.2599517619
  C         6.1739869541       13.3405592891       19.4057689605
  C         3.3073772234        7.1778976528       15.9366936284
  H         2.2681126665       10.3358218366       28.5978468866
  H         1.4429558729       10.5843409785       30.1386914821
  C         2.7555628443        8.7939793274       30.0392802959
  H        -2.7398834898       10.6897499144       26.6282119175
  H        -3.3224241455       10.4384827135       28.2545821548
  C        -4.1059294777        9.0985400669       26.8042202210
  C        -1.6191929876       14.9870136840       31.8740006766
  C        -1.9598281189       12.7491633179       32.6561331235
  H         5.0817447003       12.9240442260       19.2817106931
  H         6.2531573491       14.3703908753       19.6672110473
  C         6.9666294485       13.2125800285       18.0736436120
  H         3.1171067147        6.1532526950       15.8919324763
  C         3.5993060356        7.4984675565       14.6540277131
  H         3.4215246219        8.3573355294       29.2663981276
  H         2.2141411115        8.0453125620       30.5947869118
  C         3.8712963069        9.5426313788       30.8331039505
  H        -3.8140301510        8.5818632261       25.9148213213
  H        -4.4016104673        8.4254943655       27.6619808247
  C        -5.2526040581       10.0586615635       26.5122792377
  N        -1.2406114158       15.9931770484       30.9579744406
  C        -1.9848556050       15.4979306453       33.0978978896
  C        -2.2945303708       13.2954695335       33.8553546026
  H        -2.0385478965       11.6677173405       32.4767118525
  H         7.1834550949       12.2201473312       17.6434456064
  H         6.4213757901       13.7456913593       17.3115831425
  H         7.8992436979       13.7624812259       18.2495642750
  S         4.0434551483        9.0844499555       14.2397812926
  C         3.5962665076        6.4289146851       13.6328078890
  H         3.9549574837       10.5286658924       30.5994901783
  H         3.5772395465        9.4768840549       31.8725208089
  C         5.2642879050        8.8101399533       30.7583875260
  H        -4.9091164866       10.9466523409       25.9877949472
  H        -5.6687966461       10.4386228628       27.4492864066
  C        -6.2968033602        9.2579716173       25.7182433266
  S        -1.5334902082       17.4693010107       31.6153415836
  N        -1.8647883098       16.9152508627       33.1081004030
  C        -2.3906307465       14.7289183636       34.1521110049
  H        -2.5936130368       12.5729433329       34.6253676116
  C         4.1468514507        8.3884519975       12.5863743711
  N         3.8637459788        7.0771549731       12.5013764188
  O         3.2253145125        5.2761419470       13.7234797111
  H         5.9011051912        9.4729984331       31.3984217636
  H         5.5190591039        8.7068244164       29.7543239629
  C         5.3173010918        7.4198198688       31.3735467587
  H        -5.8870890361        8.8568544102       24.7949966953
  H        -6.4214072916        8.3087431390       26.2680042819
  C        -7.3636156069       10.2960511394       25.2384698952
  C        -2.6624619826       15.2866005011       35.4352776324
  S         4.7972299566        9.3605093711       11.1846076238
  C         3.6969204063        6.4179062843       11.2210578315
  H         5.9955368606        7.4695191823       32.2943247108
  H         4.3796183054        7.1820473601       31.8145494916
  C         5.9583921486        6.3434460656       30.5672826694
  H        -6.9225790801       10.7067907210       24.3605508915
  H        -7.4919020291       11.1087941713       25.9272755300
  C        -8.6346510834        9.5631672852       24.7413800479
  H        -2.5346563618       16.3705335002       35.5364548849
  C        -3.2058368671       14.7753103732       36.6072924079
  H         4.6666470649        6.5206454709       10.6799399913
  H         3.5890010304        5.3442317899       11.2620501108
  C         2.4955910723        6.9073511652       10.3417499399
  H         6.7386510067        6.7367310154       29.9318804924
  H         5.2466572436        6.0881731212       29.8449515591
  C         6.4503136042        5.1406173798       31.3431435660
  H        -9.0711747011       10.0379167737       23.8681577335
  H        -8.4412005187        8.4824808597       24.4877027310
  C        -9.7261673228        9.5802806126       25.8903780438
  S        -3.8448687356       13.1740858014       36.9087094390
  C        -3.4214756723       15.6371270057       37.7359292150
  H         2.0615754846        6.0140775297        9.9458199772
  H         1.7114115833        7.4432132353       10.8953396224
  H         2.8420294787        7.4705256338        9.4921310412
  H         6.9123005018        5.3488576227       32.3383722839
  H         7.3173790568        4.7055989992       30.7789474602
  H         5.6709701649        4.3699713884       31.4601377678
  H       -10.7341233801        9.6158042588       25.4855165387
  H        -9.5065023560       10.4389074867       26.5752824413
  H        -9.5550741021        8.7498425808       26.5425907737
  C        -4.2715828710       13.6944235603       38.4928981012
  N        -4.1762692055       15.0392919011       38.6459900586
  O        -3.2202508697       16.8450247110       37.7406522990
  S        -5.0969552677       12.7531162765       39.7725006524
  C        -4.6819782788       15.8339198042       39.7793213183
  H        -4.9223916605       16.8523664094       39.4107734314
  H        -5.5907077991       15.5248771145       40.1863499248
  C        -3.6380062916       15.9021440166       40.8480690088
  H        -4.0869763249       15.4188463879       41.7032750460
  H        -2.8338367871       15.3278331513       40.4759164461
  H        -3.3008253536       16.9505389710       41.0284949486
  H         7.5568057487       11.3138753570        3.6178574468
  C         8.3686299890       10.6179658914        3.5872771590
  H         7.7776317332        9.6990994233        3.4781062725
  C         9.1277784439       10.5534966650        4.9000292341
  C         9.2103451217       10.6805317552        2.3778486365
  C         8.2212876744       10.5448249162        6.1622755100
  H         9.7139790803        9.6601440099        4.8551827954
  H         9.9356268647       11.3477676194        4.8960982851
  H         9.9424594962        9.8692309306        2.3238995666
  H         9.7063395933       11.6624305519        2.2686995664
  H         8.4995768713       10.5421241671        1.5992561213
  C         7.3682865129        9.3090073939        6.4670174915
  H         9.0181339027       10.6042242049        6.9553871260
  H         7.5606399923       11.4071601932        6.1905723720
  C         6.5334019637        9.3887177893        7.7889555112
  H         8.0085286941        8.4499037980        6.4436859200
  H         6.7485508340        9.2209926723        5.5544978096
  C         5.3613607398       10.3487657863        7.6486552909
  H         7.2658069304        9.6654338880        8.5497963804
  H         6.1458016018        8.3637449476        8.0059890549
  C         4.1247702837        9.6999993937        6.9895087827
  H         5.1138129352       10.7803021290        8.6265131571
  H         5.6283145438       11.1950937099        6.9612228829
  C         2.8903046222       10.5571200834        6.9116294611
  H         3.8024371616        8.8434958871        7.5557699244
  H         4.3526600349        9.3418539139        5.9976389349
  C         3.3012342758       11.8571735153        6.2581209018
  C         2.4628840484       11.3015872290        8.1490038433
  C         1.7263502290        9.7897195517        6.2415150858
  C         2.8730191454       12.9959780488        6.9402661597
  C         3.9748224782       12.1899192290        5.0492892659
  C         2.3816687745       12.6485021591        8.2087920950
  C         2.0548440099       10.6879802744        9.3268292939
  H         2.0145560480        9.5449023276        5.2081323697
  H         1.4457445138        8.8781811698        6.7753944807
  C         0.3861150403       10.6926467674        6.1282276531
  S         3.1932558265       14.4265243051        6.0678178610
  C         3.8634997749       13.5309493307        4.8001060948
  H         4.2645300674       11.4363706685        4.3454988151
  C         1.9703520171       13.2759058402        9.3637762731
  H         2.0371045573        9.6195068750        9.2884516538
  C         1.6573318785       11.3228760394       10.4539126534
  H         0.6400972378       11.6743320161        5.7877195089
  H        -0.0941778992       10.8356416130        7.0792869011
  C        -0.5901494457       10.1889600854        5.1533532625
  C         4.3106658680       14.3079984839        3.6203037209
  C         1.6002830099       12.6719809510       10.5458355631
  H         2.0457440406       14.3295878446        9.3779210975
  C         1.1508224686       10.9184394190       11.6797094050
  H        -1.5665513549       10.7057667855        5.4309084752
  H        -0.6395689713        9.0640142181        5.1955726263
  C        -0.3070516922       10.4255255876        3.6664338901
  C         4.2260548483       15.7185808743        3.3790236991
  C         4.7892758766       13.5339261874        2.4511637484
  C         1.2536278419       13.3175576006       11.8887132299
  C         0.8967210924       12.0159267086       12.4862906477
  S         0.8621917634        9.4468873836       12.4043399630
  H         0.7027746985       10.1099647107        3.4905774182
  H        -0.2732714590       11.5058955838        3.4499715882
  C        -1.3004110981        9.7886955046        2.7187220609
  N         3.7447092490       16.6700482773        4.2853709147
  C         4.5982218401       16.3422337522        2.1801788182
  C         5.0117163504       14.1247392324        1.2234284834
  H         4.9778906988       12.4568636026        2.4711364230
  C        -0.1229345227       14.0927272170       11.8820683954
  C         2.3799102123       14.0111789864       12.5911554089
  C         0.4653839316       11.6013327765       13.7562973431
  C         0.4735943330       10.2507337775       13.8466236715
  H        -1.9364584042        9.1049697993        3.2931915915
  H        -1.9966148420       10.4693758830        2.2831534424
  C        -0.6051196196        9.0650245408        1.5443646004
  S         3.8728477767       18.1590724585        3.5731595660
  N         4.3725657435       17.6996069218        2.1220968201
  C         4.9561845196       15.5907962901        1.0570329976
  H         5.2959380952       13.5258921943        0.3549518615
  H        -0.0431833908       14.9563037570       11.1772819627
  H        -0.3423160098       14.4397845746       12.8867653803
  C        -1.4135785784       13.3600410669       11.4673360686
  H         2.5145676905       15.0656607167       12.1258134146
  H         2.0285658778       14.2291149358       13.6157679329
  C         3.6530642834       13.1145945350       12.6947222429
  H         0.3186971357       12.3393281087       14.4826833505
  C         0.1631025581        9.4176162782       15.1041288615
  H        -1.3182296407        8.4815814372        0.9138007871
  H         0.0484872509        8.2810337700        1.9228344834
  C         0.1712714804        9.9775148157        0.5625085522
  C         5.1832719495       16.2567526979       -0.1818180191
  H        -1.2396156686       12.9381846385       10.5299383429
  H        -1.5941575831       12.5586382281       12.1203704645
  C        -2.6204548996       14.2695471601       11.1644632018
  H         4.0987201912       12.9226765038       11.7218257306
  H         3.3867649667       12.1581245902       13.0914706496
  C         4.7884669484       13.7829909596       13.4678595387
  C         0.1336944794        7.9981223768       15.1868618698
  C        -0.1433028973       10.1073034234       16.3573522875
  H         0.6216439113       10.8792991326        1.0225763968
  H         1.1089930083        9.4352090758        0.2971249470
  C        -0.7143331057       10.2866424070       -0.6839303518
  H         5.1289698685       17.3110653214       -0.1560116282
  C         5.5014270801       15.8653575127       -1.4604404281
  H        -2.3033335092       14.9241039849       10.3897013487
  H        -2.7592204707       14.9738939960       11.9161834812
  C        -3.9394218455       13.5340821714       10.9844288088
  H         5.0782793796       14.6494886358       12.9248651076
  H         4.4253830465       14.1204604748       14.4098419666
  C         5.9760583707       12.7882352516       13.7078004302
  N         0.3361192584        7.1134451457       14.0647260511
  C        -0.0296312156        7.3368475163       16.3618811651
  C        -0.3420743390        9.4293235662       17.5651153421
  H        -0.1846031257       11.1421244923       16.4303021952
  H        -0.6130573893       11.2490940645       -1.0759958294
  H        -1.7493881127       10.2723033357       -0.3493323656
  H        -0.4874689790        9.5757824037       -1.5645020704
  S         5.7774398664       14.3039625426       -2.0026581501
  C         5.5379422221       16.8632386960       -2.5285591776
  H        -3.8664706976       12.4865111427       10.6861250992
  H        -4.2522870557       13.4857467646       12.0361831142
  C        -4.9262178584       14.2870511037       10.1077282456
  H         6.0541720242       12.1138162738       12.8243357510
  H         5.6328245742       12.1264688708       14.5609574998
  C         7.3773117332       13.4270545786       13.9306510241
  S         0.1986147796        5.6462172342       14.7179874313
  N         0.0366033048        5.9595954071       16.2921828377
  C        -0.3535531275        7.9577731468       17.5510244021
  H        -0.4211013940       10.0239366906       18.4771812790
  C         6.1563510817       14.9006498939       -3.6184501432
  N         5.8155436126       16.2497437807       -3.7437147675
  O         5.3979324686       18.0646300450       -2.3490060262
  H        -5.5782107991       14.9557367695       10.6828489803
  H        -4.3378750138       14.9231621303        9.4736093048
  C        -5.8433849902       13.3944627756        9.3072893466
  H         7.8648611124       12.7505414891       14.6371302881
  H         7.9666416883       13.4497660695       12.9790663458
  C         7.2783033921       14.7538091829       14.5991094716
  C        -0.6716938687        7.1308953868       18.7173938609
  S         6.5090069949       14.0071005565       -5.1266231937
  C         5.7480564448       17.0344626324       -4.9520031319
  H        -5.5851602976       13.3654568593        8.3144507581
  H        -6.0194316385       12.3444028324        9.6041315013
  C        -7.2495095516       14.0043095815        9.0079397675
  H         7.8797416351       14.5950098076       15.4829284375
  H         6.3617504277       15.0167457134       15.0309939015
  C         7.8958849674       15.8568903271       13.7396364131
  H        -0.4814169719        6.0373737852       18.6567645228
  C        -1.1170323346        7.4584094729       19.9534954310
  H         6.3040805928       16.5916533873       -5.7423762405
  H         6.1438108544       17.9907876370       -4.7672378681
  C         4.2163396097       17.2830654285       -5.4618356303
  H        -7.7447709670       13.5262067813        8.1777906940
  H        -7.1035717465       15.0257607659        8.5912850354
  C        -8.1267206126       13.9401280767       10.2297900011
  H         8.8922249870       15.5964767165       13.7337704469
  H         7.5767646205       15.8970806828       12.6751565996
  C         7.8679084838       17.2213829336       14.4612183645
  S        -1.5398901168        9.0200875309       20.6246098878
  C        -1.2879620347        6.4121925164       20.9731913793
  H         4.2496647301       18.1101551641       -6.1871378021
  H         3.5443196824       17.5057124184       -4.6445821553
  H         3.8544703724       16.3896824147       -5.9082333179
  H        -9.1652469134       14.1515562566       10.0547723825
  H        -8.1557243728       12.9046475591       10.5931982811
  H        -7.8176608704       14.5491112330       10.9703534322
  H         8.5511570315       17.8853495571       14.0010577261
  H         6.8349365485       17.6431032221       14.3046468144
  H         8.0106595932       17.1743284569       15.5533932230
  C        -1.9971501115        8.2486944541       22.0912333453
  N        -1.8119458628        6.9066686043       22.1519138454
  O        -1.2749949871        5.2367115080       20.6809311043
  S        -2.3475814844        8.9392504675       23.6733389258
  C        -2.0617920319        6.1075004447       23.3212370097
  H        -2.4410840560        5.1210422946       23.0811475049
  H        -2.8278446747        6.4622519090       23.9463022730
  C        -0.7540140243        5.9778397559       24.0662971664
  H        -0.7012494667        5.0803813665       24.7157160817
  H        -0.6608539162        6.7954894829       24.7231957015
  H         0.0941452533        5.9058980752       23.4385606925
