352
i =
  H        -4.0058457453       14.5129014934       16.2391852809
  C        -3.3096095236       13.7277470776       16.0937866216
  H        -3.9569959581       12.8416246502       16.3022125827
  C        -2.1825189202       13.8993966894       17.1968886142
  C        -2.8659028071       13.8007964991       14.5898932087
  C        -2.6491711283       14.0066635391       18.5858428236
  H        -1.5419129163       13.0575801504       17.0251187645
  H        -1.6041881930       14.8455407989       17.0243621850
  H        -2.0039862660       13.2752826393       14.3909259198
  H        -3.7045272037       13.4531007088       13.9526225337
  H        -2.7100545562       14.8377454930       14.3313342826
  C        -1.5551264726       13.7395085136       19.5013557871
  H        -3.4342337800       13.2948102266       18.6412541715
  H        -2.9852034389       15.0153683777       18.6848083856
  C        -2.0249134239       13.7575301963       20.9515090136
  H        -1.0755306162       12.7817951271       19.3675590288
  H        -0.7156703905       14.4646320727       19.3401219273
  C        -0.9651382419       13.1486250576       21.9642660586
  H        -2.9226700555       13.1352725470       21.0407099393
  H        -2.3154925409       14.6831796201       21.4421992613
  C         0.2257996079       13.9448088133       22.2165148323
  H        -1.4331594598       12.9927739483       22.9556190484
  H        -0.6382679945       12.1975921303       21.5227315579
  C         1.3514672566       13.2280388207       23.0257988646
  H         0.6375125313       14.3190645469       21.2502244884
  H         0.0185386895       14.7804344675       22.8393196480
  C         1.7446365056       11.9112493241       22.3677741589
  C         0.9240100898       12.4665977235       24.2594943304
  C         2.4953576321       14.2034515143       23.2446936999
  C         1.5569275892       10.7784665256       23.1783704507
  C         2.2929034087       11.5482189599       21.1244948748
  C         1.0879872202       11.1583612729       24.4015940546
  C         0.3658863287       13.0958658082       25.3505688803
  H         2.6455410555       14.8861897431       22.4556829403
  H         2.2296869517       14.8574281823       24.1407888303
  C         3.8346058164       13.3826772534       23.6462862923
  S         2.0286511390        9.3079492428       22.5740696291
  C         2.4737062814       10.1768650359       21.0712659486
  H         2.4361459351       12.3445882852       20.4295325208
  C         0.8011494883       10.6010130680       25.6329995214
  H         0.3447663710       14.1744509836       25.2795737551
  C         0.0894089092       12.5476464865       26.5892777516
  H         4.1849995317       12.5864132075       22.9996865210
  H         3.6227264989       12.8450731965       24.5139207275
  C         5.0753648604       14.2999711598       23.8201742797
  C         2.9053850398        9.5750441417       19.7434363882
  C         0.1902006907       11.2306193184       26.6714093106
  H         0.9239738136        9.5278277914       25.7541561326
  C        -0.2386248729       12.9776925762       27.8580590179
  H         5.8799410883       13.8740813656       24.3728726731
  H         4.7656714771       15.0599519484       24.5751643706
  C         5.5637744648       15.0266173756       22.5337401803
  C         2.9074284666        8.2023407729       19.3859004200
  C         3.3197689225       10.4573432773       18.6466134770
  C        -0.2450301341       10.4905322041       27.9602969448
  C        -0.5042112730       11.8710776404       28.6543933700
  S        -0.5730345023       14.5182680886       28.6404610305
  H         6.2131018243       15.8749817788       22.9370823580
  H         4.7982594099       15.5814482249       21.9543409943
  C         6.4067104293       14.2709567331       21.5601529508
  N         2.6909082283        7.1843889137       20.2990509119
  C         3.2107587139        7.6912003494       18.1415768597
  C         3.5776790109        9.9688379994       17.3868168672
  H         3.6649157577       11.5211288732       18.7792831683
  C         0.8718393715        9.5477714073       28.4699605766
  C        -1.5829963078        9.8307473339       27.6658775316
  C        -0.9540836610       12.2888328019       29.9901051159
  C        -1.0379861586       13.6251927402       30.0877940261
  H         7.4857200017       14.7246672737       21.6036232151
  H         6.4981035092       13.2556852689       22.0240913576
  C         5.8651057940       14.0811887814       20.1360272852
  S         2.8909003111        5.7273855617       19.5208483109
  N         3.3667471212        6.2846626331       18.0868007158
  C         3.4308477753        8.5215400633       17.0834485421
  H         4.0770543268       10.5845381103       16.6726170011
  H         0.9636890130        8.6735540363       27.7932002969
  H         0.4383754990        9.1962616280       29.4288473024
  C         2.2699572789       10.2253837747       28.7210467057
  H        -1.4215472345        8.9922541952       27.0412837390
  H        -1.7765261053        9.3513096455       28.7095316271
  C        -2.7040243992       10.6960065569       27.2388476062
  H        -1.3268938401       11.6022081853       30.7521132530
  C        -1.6040871669       14.3711595419       31.2763250800
  H         5.3354441318       14.9521687837       19.8421382132
  H         5.1673638283       13.2566616065       20.1132796950
  C         7.0127156670       13.7956502581       19.1103304467
  C         3.6681630228        7.9331158023       15.8173337365
  H         2.6750193780       10.6271672919       27.7568848562
  H         2.1138463541       11.0776759401       29.3511563845
  C         3.2350035612        9.2186373486       29.2757333396
  H        -2.5883400417       11.3078841803       26.3328865618
  H        -2.9843389294       11.4203956664       28.0014272060
  C        -3.8810918424        9.8538982389       26.9783464867
  C        -1.6632836547       15.7842885953       31.3964555158
  C        -1.8022112072       13.5927432683       32.5283567694
  H         7.7198723774       14.5434869994       19.3117621434
  H         7.5704953232       12.8872776131       19.3319391816
  C         6.6256296884       13.8120632747       17.5760714862
  H         3.5223529131        6.8991667887       15.8536789519
  C         3.9514742699        8.4262177471       14.6191272854
  H         3.3972965634        8.3436727197       28.5501715278
  H         2.7902873132        8.9431432635       30.2781166688
  C         4.6507974172        9.8511191999       29.5863081134
  H        -3.5537576558        8.9049173822       26.4617262918
  H        -4.3920263814        9.5156752371       27.8135371974
  C        -4.8981945504       10.5918457576       26.1128558208
  N        -1.4723222132       16.6435928104       30.3981502219
  C        -1.9705995324       16.4248197213       32.5775078034
  C        -2.1388469184       14.2610353099       33.7403287094
  H        -1.6509142200       12.5290560989       32.5449340589
  H         6.5843945983       14.8045380317       17.1413305873
  H         7.3658704553       13.2688000843       17.0306691088
  H         5.7174157076       13.2921516544       17.5154409034
  S         4.2656898701       10.0797775910       14.2005023304
  C         3.9574394562        7.5279545939       13.4678419433
  H         4.7137745762       10.6827758104       28.8525014748
  H         4.7584352720       10.2832372290       30.6009864555
  C         5.8734895879        9.0015245714       29.4159400319
  H        -4.4414159988       10.8208264808       25.1483721332
  H        -5.0324619168       11.6189940321       26.4770246998
  C        -6.1862370875        9.8295654359       25.7347984687
  S        -1.4782984437       18.1665880112       30.9972526873
  N        -1.9367924987       17.7878583213       32.4731185533
  C        -2.2770476508       15.7064551993       33.7573220680
  H        -2.0910742055       13.6513870512       34.6393933401
  C         4.4319614010        9.4904840403       12.5675684228
  N         4.3305487641        8.1764512302       12.3555198821
  O         3.9149897217        6.3212777507       13.5561627275
  H         6.7311066283        9.5727844579       28.9620708655
  H         5.7830703601        8.3317267485       28.4954580765
  C         6.3249797056        8.2039348620       30.6258722741
  H        -6.1244043788        9.3231423385       24.7990445379
  H        -6.4206669898        9.2124084967       26.6228866597
  C        -7.2750186774       10.8370179545       25.4958427545
  C        -2.6190509121       16.4442928455       34.9123449429
  S         4.8471376672       10.4399733794       11.1548678859
  C         4.2566970224        7.5567689246       10.9718633280
  H         7.3019255931        7.7938420800       30.4362177739
  H         6.3812445490        8.7364905524       31.5607826754
  C         5.3546084167        6.9847629170       30.8403150352
  H        -6.9688472241       11.4824183763       24.6465469811
  H        -7.4122266263       11.5537547671       26.3455460521
  C        -8.6162173901       10.1812606756       25.1342130437
  H        -2.0141275989       17.3140630168       35.0095750474
  C        -3.2848717335       16.0701002151       36.0440230607
  H         5.0051636648        7.9723102113       10.2928166105
  H         4.5858950027        6.5456039695       10.9773817842
  C         2.8512362192        7.6620605049       10.3400675986
  H         5.2829779735        6.4227394223       29.9283100788
  H         4.3109545162        7.1389887146       31.0771574343
  C         5.9976879273        6.0014686690       31.7905630907
  H        -9.0292735800       10.8687634448       24.3388802351
  H        -8.4497383665        9.2234115180       24.6805366319
  C        -9.5210136356        9.9323215149       26.2829538563
  S        -4.1175423290       14.5615082216       36.3214347587
  C        -3.2883112697       17.0119128533       37.1883795338
  H         2.0560941470        7.1142540559       10.8671456895
  H         2.5679891183        8.6902258917       10.4218431334
  H         2.7875692326        7.3851708258        9.2898147198
  H         5.9521895135        6.4458986150       32.7911705733
  H         7.0416144551        5.7907573068       31.5114492401
  H         5.5918737388        5.0276422431       31.6930246560
  H        -8.8471547206        9.2358997322       26.7550928200
  H       -10.4932886743        9.4993963910       26.1355287155
  H        -9.6875307348       10.7390592967       26.9414495774
  C        -4.3826929780       15.1888571288       37.9141499834
  N        -4.0141999417       16.4321645096       38.1807305143
  O        -2.7815932424       18.0847171613       37.2248637141
  S        -5.2955707535       14.3040220022       39.1520463631
  C        -4.1043792307       17.2207715601       39.4648228678
  H        -4.0441337313       18.3276186386       39.2438266757
  H        -5.0701407721       16.9191498991       39.9945348190
  C        -2.9261449853       16.8720604174       40.4001160745
  H        -2.4116090434       16.0102870410       40.0302956004
  H        -2.2716353564       17.7169972465       40.5313400324
  H        -3.3985197469       16.6042213342       41.3523495368
  H         7.5364293690       11.5693038754        4.0009778333
  C         8.3519281748       10.8553942541        3.8692832214
  H         7.7204703375        9.9337764662        3.7215913256
  C         9.2097869082       10.7252857351        5.1638380835
  C         9.1300233178       11.2195715487        2.6266157989
  C         8.4535235367       11.2215948465        6.3790008450
  H         9.4477723367        9.6723754036        5.3259211448
  H        10.0902384841       11.3592676696        5.0503212243
  H         9.8396817498       11.9938397019        2.7249420271
  H         8.3752630178       11.4279174370        1.8567543208
  H         9.6387412791       10.3495195486        2.2171791902
  C         7.6565803368        9.9817621791        6.9647958905
  H         9.1568764010       11.5996573286        7.1997920548
  H         7.9141021017       12.0463081638        6.0926200128
  C         6.7936852407       10.3559889457        8.1881574658
  H         8.3500077535        9.1706836265        7.2972064090
  H         7.0635014786        9.5590116067        6.1542657121
  C         5.6338714819       11.3674123047        7.8577575340
  H         7.4894600351       10.8055980409        8.8977843442
  H         6.4543184194        9.4451067347        8.7229908753
  C         4.4623908211       10.5104292895        7.2537702878
  H         5.2500226756       11.8096171967        8.7758529801
  H         6.0170655680       12.1205576111        7.1478431967
  C         3.3019867810       11.4353744186        6.8507738857
  H         4.1549761378        9.8021226774        7.9971413653
  H         4.8133937013        9.9543489606        6.3800976097
  C         3.7284296315       12.7966954894        6.2098677275
  C         2.8494761746       12.1735516689        8.0735160215
  C         2.1366042119       10.7382400843        6.0503231130
  C         3.5112197079       13.9088604195        7.0023971854
  C         4.2385033545       13.1840309169        4.9706937787
  C         2.9455672979       13.5340126342        8.2266619889
  C         2.4087497567       11.5089811034        9.2292069129
  H         2.5524730117       10.5200139150        5.1062051321
  H         1.8359296026        9.8267762750        6.5627527719
  C         0.8339042777       11.6305813387        5.8492643244
  S         3.7980287051       15.4271460961        6.2293173880
  C         4.3832523030       14.5618194931        4.8621704075
  H         4.4910260775       12.3889405753        4.2876683980
  C         2.5327559785       14.0901827400        9.3909977697
  H         2.2746979922       10.4530504479        9.1992683750
  C         1.9962651810       12.1060204054       10.4217254857
  H         0.9883822751       12.6606950172        5.6820218039
  H         0.3959378086       11.5131426372        6.8731158710
  C        -0.1315618702       11.1266213520        4.7826185209
  C         4.8423501200       15.3053136369        3.6206279398
  C         1.9918283433       13.4469692790       10.5289820661
  H         2.4964942883       15.1539567837        9.4671313086
  C         1.5297209496       11.6857606856       11.6726295623
  H        -0.8292868872       11.9619909177        4.6578780419
  H        -0.6444505535       10.2595338815        5.1380446314
  C         0.5875007534       10.7581854785        3.4417836380
  C         4.6844361897       16.6864612958        3.3707109777
  C         5.4425139337       14.4352833042        2.5757588147
  C         1.4182041695       14.1319722039       11.8340853415
  C         1.1468268855       12.7203404183       12.4946315231
  S         1.1373460983       10.1482898957       12.2888627206
  H         1.1533153029        9.8680141830        3.5300286486
  H         1.3976732491       11.4027854527        3.3842817018
  C        -0.3875880515       10.7230300848        2.2709032388
  N         4.1338199396       17.6445335728        4.2160103034
  C         4.9865404430       17.1831588240        2.1103288610
  C         5.6168620969       14.9643321662        1.2997299678
  H         5.6273984083       13.3553709300        2.7524315205
  C         0.1042945229       14.8368312789       11.2808374542
  C         2.5014608099       15.0736026565       12.4959238425
  C         0.5851322304       12.2410373098       13.6424020907
  C         0.7999821573       10.8503850333       13.7263673127
  H        -1.4643154357       10.4748936051        2.6216477482
  H        -0.4142573198       11.6839721178        1.8925097222
  C         0.0656258659        9.8486551686        1.1156734229
  S         4.2525378045       19.0308367887        3.4296505740
  N         4.6981225919       18.5045834164        1.9723847021
  C         5.3441287908       16.4077460143        1.0002732105
  H         6.1967072677       14.4059029425        0.5836818587
  H         0.4014120586       15.4892422399       10.4200192762
  H        -0.2709022977       15.4172368206       12.1023116633
  C        -0.9630298433       13.7885268725       10.8186455915
  H         3.1655761371       15.4921626539       11.7756134690
  H         2.0045635502       15.9792702372       12.9393971411
  C         3.2701245231       14.4808312131       13.7058157039
  H         0.1955548447       12.9062819287       14.4180118553
  C         0.5532319627       10.1143602498       14.9924348146
  H        -0.5843921373        8.9493265633        1.0805871462
  H         1.0928542516        9.5497402672        1.0711922492
  C        -0.0787646516       10.7058112547       -0.1889700585
  C         5.4919739742       17.1208470813       -0.2499343776
  H        -0.7418479962       13.1998967258        9.9228903503
  H        -1.2167190569       13.1052485486       11.5990006669
  C        -2.2963694727       14.4252719654       10.4879677088
  H         3.7749332817       13.6319034150       13.3214627325
  H         2.5862363074       14.1479622963       14.5019518219
  C         4.2773313644       15.4533463663       14.2095095417
  C         0.4678920794        8.6796085536       15.2453534499
  C         0.3749426081       10.8413475589       16.2455392462
  H         0.4526976370       11.6527793806       -0.2520835200
  H         0.2707888091       10.0767943406       -1.0213366925
  C        -1.5008941094       11.0738088159       -0.6338535486
  H         5.5400478386       18.1729186017       -0.1546092752
  C         5.6802863240       16.6069658963       -1.4861249397
  H        -2.2618438317       15.2168759898        9.7024900202
  H        -2.5394730423       15.0880873930       11.2850490294
  C        -3.5484218574       13.5753085058       10.1654514812
  H         3.8400248935       16.4700659124       14.3564182056
  H         4.6867219732       15.1335681754       15.1830995309
  C         5.5056678953       15.6949973286       13.2718463707
  N         0.7669540492        7.7690519797       14.2313028463
  C         0.1739294131        8.1152391988       16.4511653194
  C         0.0213874069       10.2408237995       17.5408628662
  H         0.3613529499       11.9552176094       16.1090397687
  H        -1.6897260158       11.2721314666       -1.6875785446
  H        -1.9170108321       11.9411838323       -0.1267036144
  H        -2.0904492863       10.1466108283       -0.5767435684
  S         5.7783316648       14.9479614481       -2.0436599653
  C         5.8846865099       17.5799093415       -2.6259269697
  H        -3.2452177249       12.8913677966        9.3677381409
  H        -3.8441854273       13.0392943566       11.0803412023
  C        -4.6527688485       14.4623629665        9.6214061897
  H         5.2292744617       15.9956550855       12.2420382948
  H         6.0901615922       14.7829824018       13.3229785372
  C         6.3304411394       16.8508750274       13.7939317958
  S         0.6762075796        6.2961974906       14.9033830050
  N         0.1680538011        6.7451111895       16.3827785745
  C        -0.1089939518        8.8031503388       17.6583475504
  H        -0.1506836813       10.9389751038       18.3436356368
  C         6.0303088692       15.5699138423       -3.6921055013
  N         6.0655363538       16.9212528883       -3.7982499899
  O         5.7951943188       18.8239855652       -2.4759232306
  H        -5.0354280631       15.2145495029       10.3102507891
  H        -4.3562908175       15.0983668879        8.7378447030
  C        -5.7613549847       13.4296261751        9.3030000381
  H         5.9739067403       17.8273476874       13.4242904759
  H         6.0777413957       17.0512140028       14.8388206168
  C         7.7776402108       16.7214135726       13.5606301606
  C        -0.3456633298        8.0334487626       18.8067612904
  S         6.2500496343       14.5839840676       -5.1847215152
  C         5.9731814770       17.6612642316       -5.0826304971
  H        -5.4628769432       12.7444611483        8.5416327715
  H        -5.8581342494       12.7292033124       10.1126403752
  C        -7.1154947887       14.1042646077        9.1758643040
  H         7.8977286231       16.8641355237       12.4853592147
  H         8.0144194274       15.6624713793       13.8870176833
  C         8.5325275860       17.8527548442       14.3547792963
  H         0.0103302843        6.9918666314       18.7892805268
  C        -1.0143364617        8.3598427652       19.9744165375
  H         6.6947955846       17.2599350298       -5.7599380246
  H         6.1652503821       18.7197916281       -4.8432537189
  C         4.5482033767       17.6256050992       -5.6716797896
  H        -7.7298710027       13.7220819361        8.4546273305
  H        -6.9259600463       15.1096141546        8.8847380841
  C        -7.9483387498       14.2828385959       10.4275139506
  H         9.6034192909       17.8299996240       14.1062519947
  H         8.1854789565       18.7726421657       13.9745298279
  C         8.4972075722       17.7845717762       15.8750412280
  S        -1.7588689269        9.8585026330       20.4062475484
  C        -1.1257715905        7.2695450039       21.0678062160
  H         3.8220273416       18.2705537003       -5.1228697127
  H         4.1199456281       16.5978583435       -5.6409118275
  H         4.5517702104       17.8434838004       -6.7299806072
  H        -7.7196995508       13.4106340390       11.0227370429
  H        -7.7877250798       15.2085938325       10.9920483216
  H        -8.9815018547       14.3173934255       10.0445349655
  H         7.8536386302       16.9538435187       16.1614428207
  H         9.4949087028       17.6216403777       16.3061417948
  H         8.1885328602       18.7593546515       16.2933405166
  C        -1.9264264231        9.1044824951       22.0820271393
  N        -1.6784825263        7.7767523362       22.1998048511
  O        -0.6983227939        6.1471891486       20.8740985760
  S        -2.5858734496        9.8890479593       23.5177666832
  C        -1.7772666839        6.8940521525       23.3861930822
  H        -1.9854663968        5.8244187063       23.1590481398
  H        -2.6233225775        7.3425654515       23.9547197016
  C        -0.4694865907        6.9060100096       24.1770872110
  H         0.2851959568        6.3127659278       23.7207815281
  H        -0.6676256040        6.5165023298       25.1387474537
  H        -0.0593433428        7.9085979418       24.2917223354
