352
i =
  H        -3.6653843029       14.4603763352       16.5930901889
  C        -3.1362601969       13.4836974300       16.6816338299
  H        -3.8055834718       12.7306730819       17.0229521472
  C        -1.9847084071       13.7516293545       17.6221117578
  C        -2.6689431466       13.0778047824       15.3511701260
  C        -2.4883373312       13.8066373334       19.0652249295
  H        -1.2817015995       12.9545062005       17.5545153745
  H        -1.4929105408       14.6419776264       17.2226717822
  H        -2.4106002081       12.0123751245       15.3489820061
  H        -3.2871846991       13.3831026076       14.5735607077
  H        -1.7758324125       13.6096913974       15.1958384936
  C        -1.4128818207       13.8114414283       20.1085319197
  H        -3.1807505145       13.0517591679       19.2898089964
  H        -3.0410859204       14.7347210012       19.2922456611
  C        -1.9858941434       13.8253705983       21.4185997033
  H        -0.7513285626       12.9682207939       20.0569625489
  H        -0.8295394374       14.6931497801       19.9353595208
  C        -1.0529193755       13.0926692212       22.3336137957
  H        -2.8849904890       13.2299022594       21.4789328556
  H        -2.2704534442       14.8314646737       21.7580040403
  C         0.1862531606       13.9007414300       22.6461809917
  H        -1.4470302270       12.9500382647       23.3633689455
  H        -0.7767300659       12.1672427608       21.8369868295
  C         1.2197645794       13.1560476897       23.4864423083
  H         0.6134778548       14.3785728458       21.7946143429
  H        -0.1843439640       14.7296806155       23.3251985375
  C         1.5622848107       11.8156962077       22.7920127244
  C         0.7830311245       12.4118944911       24.7338490660
  C         2.4713617384       13.9934791521       23.7398581663
  C         1.2463787178       10.6947006522       23.5469226835
  C         1.8815216956       11.3617159423       21.4956978177
  C         0.7887802011       11.0825175545       24.7617702415
  C         0.2086333894       13.0377459317       25.8100570676
  H         2.6512009403       14.5582958237       22.8372717941
  H         2.1983802850       14.5839460026       24.6207532683
  C         3.7183213146       13.1813157058       24.0661730777
  S         1.6113353888        9.1127615802       22.8526275481
  C         2.0340821891        9.9978796407       21.3666101299
  H         2.0550063664       12.1246079022       20.7096337412
  C         0.3982239458       10.4045773504       25.8821420487
  H         0.3832366269       14.1546733714       25.8022186093
  C        -0.1975427167       12.3506440811       26.9613356163
  H         4.0090219569       12.4401022235       23.3413610127
  H         3.4352790673       12.6214139818       24.9482225041
  C         5.0014289577       13.9820490120       24.3527826126
  C         2.4170330503        9.2599598316       20.0906618629
  C        -0.1083373011       10.9678453683       27.0500348285
  H         0.4281054632        9.3610931750       25.8610563674
  C        -0.6553503939       12.8051200027       28.1929204983
  H         5.6419724660       13.4467253682       24.9911943140
  H         4.6541329263       14.7843909151       24.9788025558
  C         5.7293848227       14.4465566968       23.0747207569
  C         2.4549920883        7.8683557994       19.8306175540
  C         2.8673755895       10.0524071511       18.9309234210
  C        -0.5023902990       10.3067907062       28.3158180909
  C        -0.7998906930       11.7171651653       29.0048266743
  S        -0.8826212353       14.3108032659       28.9213279597
  H         6.4686245365       15.1322456164       23.4030952301
  H         5.1127971195       15.0664997744       22.4197705161
  C         6.3637235413       13.3034548476       22.2926844384
  N         2.1953678774        6.8385800529       20.7887967652
  C         2.7727243304        7.2889736323       18.6274582027
  C         3.1989703213        9.5421905698       17.6790875767
  H         2.8245330921       11.1409900716       18.9314398016
  C         0.6291952985        9.4395050412       28.9877080089
  C        -1.7518571943        9.4990683480       28.0818399212
  C        -1.1184895683       12.1730686700       30.3111026134
  C        -1.1400731658       13.5453655491       30.4416049259
  H         7.3019925617       13.6672045076       21.9523007071
  H         6.6891049516       12.4827758643       22.9458945409
  C         5.6845903061       12.8538409347       20.9977261070
  S         2.1031015396        5.3774891256       20.0661388153
  N         2.5188830157        5.9285218131       18.6116738524
  C         3.0708698800        8.0649250575       17.4467256434
  H         3.4079535241       10.2675129884       16.9199786703
  H         0.8638576249        8.5606245528       28.4523534847
  H         0.1817357353        9.0911441053       29.8675117835
  C         1.9617270038       10.1550053313       29.3100344410
  H        -1.5290137192        8.6614002179       27.4371861288
  H        -2.1511865025        9.0712506599       29.0344964642
  C        -2.8751843148       10.3925207658       27.4935427214
  H        -1.2525903337       11.4297779801       31.1077394809
  C        -1.5636387323       14.2990447333       31.6746633696
  H         4.5711941781       12.8122438646       20.9798169742
  H         5.8973623889       11.7950736417       20.8202645490
  C         6.1425543751       13.7780128513       19.8725905823
  C         3.2762933281        7.3061318617       16.2446393060
  H         2.4090015180       10.5840186941       28.3811303793
  H         1.6964759173       11.0743266573       29.8035300234
  C         3.0581925674        9.2978218275       29.9473237842
  H        -2.6417212305       10.9918243939       26.5595664248
  H        -3.0581523269       11.2165825143       28.1646871902
  C        -4.1412306782        9.6171278699       27.1670799267
  C        -1.7493615810       15.6890150554       31.7722573658
  C        -1.8810749718       13.6020374407       32.9229381365
  H         5.3307234325       13.9179896817       19.1793966000
  H         6.5677317941       14.6576410247       20.3386561007
  C         7.2993923226       13.1471067840       19.0836019050
  H         2.8975755638        6.2542980979       16.2419059421
  C         3.7164473798        7.6999786179       15.0227460050
  H         3.8129508922        9.0250886084       29.2013917414
  H         2.7397668689        8.3722992928       30.2554769542
  C         3.7385800381        9.9525883927       31.1634380929
  H        -3.9466667195        8.9173394649       26.3820346286
  H        -4.4738892634        8.9320570596       27.9347569695
  C        -5.2853997776       10.5803326976       26.7240685927
  N        -1.6296160274       16.5608548795       30.6651675604
  C        -2.0765581522       16.3605465648       32.9261159339
  C        -2.1415977592       14.2216795752       34.0934995287
  H        -1.6794903116       12.4931553748       32.9620815790
  H         7.0341742448       12.2967346505       18.4331177086
  H         7.8262035134       13.9183354992       18.5060113055
  H         7.9999341270       12.7024540529       19.7824296347
  S         3.9919242491        9.2812874665       14.4978665010
  C         3.7505499441        6.6337393318       14.0212513609
  H         3.7049040245       11.0396225501       31.0416563253
  H         3.1637668963        9.7809568152       32.0845419190
  C         5.2079898545        9.5218312184       31.1996847907
  H        -4.8769995337       11.2994014943       25.9859801217
  H        -5.4921665676       11.2646335971       27.6151563689
  C        -6.4823004928        9.7804604273       26.1248400836
  S        -1.7478638190       18.0944637941       31.2120383408
  N        -2.1945839393       17.7647284634       32.7310020412
  C        -2.2909388498       15.7044792667       34.1643051698
  H        -2.3533480286       13.5908055411       34.8704434445
  C         4.0778629873        8.5912232847       12.8558907612
  N         3.7927766244        7.2614323425       12.8063898475
  O         3.7041630385        5.4229502565       14.1984147986
  H         5.7778080127       10.3220180534       31.6041897538
  H         5.5345667082        9.3025277289       30.1249411314
  C         5.4526476865        8.2336801839       31.9792337011
  H        -6.0463487445        9.0377456227       25.3337901538
  H        -6.8939759929        9.1344655714       26.8845455982
  C        -7.5906162744       10.6659699661       25.4982074750
  C        -2.4617413540       16.4927426991       35.3552384585
  S         4.6246169597        9.5111104675       11.4262353036
  C         3.7167231323        6.5068424231       11.5625583804
  H         6.1897747098        8.3967190801       32.7778123127
  H         4.5083572986        8.1060879140       32.4564098562
  C         5.7368309852        7.0062429096       31.1653869903
  H        -7.1108692651       11.4550233127       24.8852947533
  H        -8.0174730389       11.3177876796       26.2130084674
  C        -8.8024690347        9.9398860935       24.7930624023
  H        -2.4267954220       17.5561487653       35.2086026028
  C        -2.9200645646       16.2034136965       36.6208298522
  H         4.3375157458        6.9170023916       10.7417379514
  H         4.1668620620        5.5216502887       11.8017160285
  C         2.2545573166        6.3527585889       11.1394041057
  H         5.3277234579        6.9917513159       30.0860414790
  H         5.1566378807        6.2220536642       31.6582138009
  C         7.2323096361        6.7148392199       31.0190917046
  H        -9.1248611182       10.5182400247       23.9153097865
  H        -8.4438687236        9.0264395110       24.4214280583
  C       -10.0053254247        9.8853309969       25.7029669242
  S        -3.3725156859       14.6645422519       37.2103836727
  C        -2.9150587242       17.3501573638       37.5671387897
  H         2.1814136715        6.1876001542       10.0597596721
  H         1.8363522836        5.5241953757       11.7452231382
  H         1.5477349542        7.2201041982       11.2711115863
  H         7.3599317790        6.1103283797       30.0774093261
  H         7.6817139443        6.3989615531       31.9299201166
  H         7.7251879955        7.6318879269       30.7286598388
  H        -9.7096738245        9.4698513169       26.6613910371
  H       -10.8593921077        9.2812465329       25.3602617600
  H       -10.2855828779       10.9099803382       25.8578429662
  C        -3.8263783949       15.5665970681       38.7064655087
  N        -3.5953740647       16.9028182844       38.6698743291
  O        -2.5946645924       18.5181257785       37.3147126081
  S        -4.4058380145       14.7445749773       40.1187156857
  C        -3.7271758645       17.7537157317       39.8249558865
  H        -3.7522150627       18.7948670610       39.4934900633
  H        -4.6673346338       17.5589933387       40.3202089128
  C        -2.5450002170       17.5772332684       40.8054050597
  H        -2.9280788796       17.2804063653       41.7714806536
  H        -1.6657345639       17.0030328031       40.4158454307
  H        -2.0977698264       18.5327634715       41.1030384226
  H         6.8516638696       10.9705221517        3.5661425054
  C         7.4771079362       10.1134582992        3.5784750877
  H         7.1335673804        9.1743284016        3.9140566273
  C         8.6019885377       10.5109215738        4.6093282584
  C         8.0369233025        9.9534815110        2.2194179355
  C         8.0828199815       10.7943030567        5.9637712868
  H         9.2844876551        9.6581818769        4.6286398201
  H         9.1586281425       11.3194998751        4.1721219539
  H         8.2161947259       10.9831078687        1.9030541238
  H         7.3430191151        9.3835969429        1.5108360399
  H         9.0780574062        9.5748681236        2.3534786771
  C         7.2741417928        9.5503497048        6.5597404104
  H         8.9614672922       10.9479871676        6.7004801966
  H         7.5475910171       11.7163054247        6.0143448269
  C         6.7074413155        9.8527495913        7.9769605747
  H         7.8981002746        8.6357800499        6.5461183562
  H         6.4069139843        9.3507776319        5.9165244105
  C         5.4172782119       10.7602025573        7.9784516704
  H         7.3684609297       10.4047469204        8.5348333116
  H         6.4092038171        8.9972489004        8.5671151692
  C         4.2235410428        9.9200134611        7.5152721182
  H         5.2907450581       11.0504023982        9.0358161258
  H         5.4988478853       11.7300021959        7.4721335205
  C         2.9490704575       10.7552747809        7.3578713518
  H         4.0656899929        9.1665835513        8.2169573253
  H         4.2988200533        9.3869485935        6.5960246538
  C         3.2357939454       12.0645591240        6.6691976210
  C         2.4619518270       11.4575414301        8.6231790598
  C         1.7974326151       10.0112095802        6.7275116193
  C         2.8674234069       13.1678823048        7.4675368632
  C         3.7157312119       12.4705979473        5.3940556227
  C         2.4526091256       12.8222230628        8.7039424889
  C         1.9111935863       10.8102451538        9.7105199097
  H         2.1035040573        9.5589929770        5.7840537678
  H         1.6181244656        9.1543013923        7.4278964452
  C         0.4702388938       10.8325208065        6.4920593506
  S         3.2897704350       14.6692245741        6.6645086676
  C         3.7678440612       13.7966064702        5.2628247600
  H         3.8997780759       11.7500595266        4.5874289597
  C         2.0457939545       13.4324121385        9.8414447018
  H         1.7628510797        9.7570176623        9.7621018381
  C         1.5304626832       11.4141058191       10.8702163664
  H         0.7376821467       11.9129921668        6.2823370615
  H        -0.0803907018       11.0561064974        7.4595647081
  C        -0.4046232064       10.2680946619        5.4489996871
  C         4.2186067323       14.5708479913        3.9883757951
  C         1.5831651570       12.7657446502       10.9859182053
  H         2.1286537789       14.4942757470        9.9848681632
  C         1.0299979668       11.0394508459       12.0841136565
  H        -1.2595744556       10.8743920981        5.2463618924
  H        -0.7325069969        9.2686849816        5.8053130674
  C         0.3233522902       10.3269249562        4.0577764788
  C         4.0858253772       15.9363856997        3.6997788194
  C         4.6489896492       13.6866906476        2.8358522137
  C         1.1124451744       13.4358844450       12.2779951548
  C         0.8284774918       12.0971564210       12.9373660062
  S         0.8313327417        9.5127108761       12.8586441995
  H         1.0418251276        9.5872819222        3.9480024045
  H         0.8011683577       11.2732865925        4.1103059403
  C        -0.7439911507       10.1917221046        2.9084064643
  N         3.7393441705       16.9317662691        4.6537604034
  C         4.4223783490       16.4360732038        2.4713305078
  C         5.0298545111       14.2143020209        1.6044144697
  H         4.5003908698       12.6403568520        2.8200357430
  C        -0.1962207896       14.2474970592       12.0385529242
  C         2.1619573356       14.2501213829       13.1095700084
  C         0.6317825114       11.6869652412       14.2810238076
  C         0.5268163476       10.3428325187       14.3633625480
  H        -1.6897298215        9.8227824783        3.2431562878
  H        -0.9128719748       11.2377747985        2.6760286180
  C        -0.2888615439        9.3568297068        1.6701537915
  S         3.7933319586       18.3896563049        3.8747663142
  N         4.2426454522       17.8421886392        2.3825171538
  C         4.9484377484       15.6499322774        1.4168963398
  H         5.2934576582       13.5496218846        0.7828547835
  H         0.0834702422       15.1418675852       11.4748061720
  H        -0.5236843249       14.6744476815       13.0076105834
  C        -1.2905430875       13.4145374747       11.3163579819
  H         2.3854297915       15.1223794572       12.4789450876
  H         1.6527716799       14.7589779866       13.9542269476
  C         3.3568882236       13.5026541906       13.6593959515
  H         0.6305542780       12.4002498249       15.0469500513
  C         0.1922200644        9.4929947038       15.5476094284
  H        -0.0326559303        8.3219626645        1.9216495755
  H         0.6089527326        9.7620974562        1.2713745088
  C        -1.3381927535        9.3677957955        0.6358727684
  C         5.2415992287       16.2759357537        0.1508736532
  H        -0.9195758268       13.0223398406       10.3787154709
  H        -1.5534535459       12.6182573281       11.9372341822
  C        -2.5226475855       14.3092059008       11.1439456355
  H         3.8212915179       12.8697489170       12.8488485228
  H         3.1949243699       12.8091511931       14.5059319131
  C         4.3420713701       14.5559817844       14.1259077080
  C         0.0506403808        8.1056962157       15.6515346535
  C        -0.0531111855       10.2524719333       16.7993991764
  H        -1.6555969611        8.3554211511        0.3790365611
  H        -2.2296410074        9.8438086962        0.9463119336
  C        -0.8745132362       10.0536870439       -0.6767842853
  H         5.3636620420       17.3481061037        0.2000103647
  C         5.6453148634       15.8164287852       -1.1169817806
  H        -2.1733443535       15.2170301395       10.8075977478
  H        -3.0528699327       14.3637816136       12.0910177464
  C        -3.5868955249       13.9282088110       10.0581398016
  H         4.6379632518       15.0288259277       13.1421554878
  H         3.8231751954       15.3582635486       14.6484732619
  C         5.5513732239       13.9817583700       14.9287455519
  N         0.2160758883        7.1864312801       14.6207609843
  C        -0.1838379235        7.4990251767       16.8644700870
  C        -0.2668447000        9.6103477510       18.0037284233
  H         0.0352220744       11.2950488129       16.7978132957
  H        -0.3724785063       11.0044819550       -0.5685853760
  H        -1.7470307673       10.1116340177       -1.4129236748
  H        -0.1652645742        9.4079383703       -1.1614324897
  S         5.7108770595       14.1722998059       -1.6278976861
  C         5.8618297963       16.8551926828       -2.1951897289
  H        -4.3048945961       14.6735333628        9.8988954054
  H        -3.0841458209       13.6653932922        9.1524097993
  C        -4.3973676140       12.6347381951       10.4569919099
  H         5.9648081378       13.1617076339       14.3093773505
  H         5.2098300136       13.5928112780       15.8675733855
  C         6.6496339790       15.0620694654       15.1711456980
  S        -0.0089251319        5.6845821706       15.2406667348
  N        -0.2954879114        6.0894525489       16.7652142785
  C        -0.3869256618        8.1371274594       18.0534661601
  H        -0.2904966929       10.1404600695       18.9173006949
  C         5.9645237487       14.8539195508       -3.2512171611
  N         6.0616156208       16.2171819682       -3.3309122736
  O         5.7746348241       18.0740701237       -2.0635737655
  H        -3.8878692235       11.8084653186       10.9654462721
  H        -5.1098593718       13.0820840781       11.1984773067
  C        -5.3330377319       12.0065126074        9.3685838615
  H         6.0230586554       15.9045303671       15.4437158297
  H         7.4380599429       14.8068652398       15.8947852117
  C         7.4622797210       15.4089563537       13.8705172749
  C        -0.7792227822        7.3781575651       19.1929458614
  S         6.2665612962       13.9681850932       -4.7156483770
  C         6.1162355161       16.9983865939       -4.5898114932
  H        -4.6464870353       11.6427294625        8.6042545922
  H        -5.8125034107       11.0904045470        9.7560960842
  C        -6.4786249282       12.8918185645        8.8103150217
  H         7.1084166725       14.9362455317       12.9835043393
  H         8.4706859235       15.1324454023       13.9479069365
  C         7.4558577566       16.9555788110       13.5241648080
  H        -0.6084656882        6.3215526235       19.0904652339
  C        -1.1910254556        7.7894882577       20.4451243486
  H         6.8097393246       16.5416518434       -5.3310926574
  H         6.8369395774       17.7970993272       -4.2922382714
  C         4.7728415042       17.4020986488       -5.1482703821
  H        -6.7371228689       12.5709813819        7.7077850974
  H        -5.9896043438       13.8409183127        8.5466196655
  C        -7.5782780755       13.2183714709        9.7869106704
  H         7.9369740425       17.0662182607       12.5266833498
  H         6.4514964722       17.4635859437       13.4059646293
  C         8.3443466153       17.6447079846       14.5487248688
  S        -1.5240326386        9.3234009716       20.9294049562
  C        -1.4171074866        6.7636988973       21.4908777558
  H         4.8689353568       17.6751447768       -6.2401963147
  H         4.4218491025       18.2818435456       -4.6838872141
  H         4.0148875918       16.5948342319       -5.1466646084
  H        -7.8480668459       12.3770648134       10.3650693796
  H        -7.4349808101       13.9557154258       10.5527405641
  H        -8.4195004208       13.7475096773        9.2499037933
  H         8.0006175195       17.4635019480       15.5252026452
  H         9.4442833376       17.5393744854       14.4195429485
  H         8.2282330557       18.6958066036       14.3451762185
  C        -1.9765356364        8.6276046921       22.5549745083
  N        -1.9286025920        7.3627711170       22.6309994616
  O        -1.2026829469        5.5519842369       21.3307455968
  S        -2.5501544496        9.6216243441       23.9447370648
  C        -2.1259617488        6.4915876250       23.8464162896
  H        -2.2514163007        5.4633782620       23.5511221769
  H        -3.0396961858        6.8358852206       24.3658709934
  C        -0.9573080550        6.7666231102       24.8725242132
  H        -1.1224309059        6.0384268664       25.6966759567
  H        -0.9853133244        7.7880944136       25.2291926337
  H        -0.0102520220        6.4911341476       24.4476164173
