352
i =
  H        -1.7662649803       15.9277999188       15.7548708281
  C        -2.4328202406       15.3201155658       16.3579840017
  H        -3.1834597136       16.0160566847       16.7634890793
  C        -1.6266998319       14.8139497575       17.5871712555
  C        -3.0836529192       14.1588474880       15.6071511769
  C        -2.5746354533       14.1030324641       18.5883990602
  H        -0.6502672813       14.2977711635       17.2739403740
  H        -1.2250546611       15.7219730691       18.0905761044
  H        -2.8007164744       14.4407019974       14.5666570004
  H        -2.6362077246       13.1813191426       15.8376770951
  H        -4.1524841443       14.1724519303       15.6985329570
  C        -1.7708422898       13.4557275021       19.7295509995
  H        -3.3346970365       13.3778594183       18.2369945357
  H        -3.1944507446       14.9175175521       19.0621964203
  C        -2.1634530585       13.8508879181       21.1296436674
  H        -1.9219112686       12.3452127166       19.5860911143
  H        -0.6744116539       13.7348233492       19.7369747150
  C        -1.2785702314       13.3199966090       22.2026257950
  H        -3.1237213816       13.5390445712       21.2653097849
  H        -2.0898110064       14.9738897437       21.1450549452
  C         0.0117107630       14.0354363341       22.5108424697
  H        -2.0595299167       13.2120005457       23.0060950434
  H        -1.0550852135       12.2781447963       22.0913655541
  C         1.1241151999       13.2621712678       23.2771077837
  H         0.4772630141       14.3759018148       21.5775235350
  H        -0.3173691053       14.9874968893       23.0821919946
  C         1.4858860867       11.9185050395       22.5320175393
  C         0.5795483066       12.4708244765       24.5685110293
  C         2.3186551432       14.1852340185       23.5831372218
  C         1.2542831129       10.7703218314       23.3872512577
  C         1.9923967840       11.5284756951       21.2716583826
  C         0.6655926546       11.1018393825       24.6222538374
  C         0.0035895996       13.0694723109       25.6982844099
  H         2.5326038000       15.0061674458       22.8540714074
  H         2.0399364562       14.6588370871       24.5165421867
  C         3.6649826688       13.4530858516       23.9088604949
  S         1.6737728191        9.2472736545       22.5598630612
  C         2.1577693181       10.1366201668       21.1249981863
  H         2.2328486021       12.2831907960       20.5511877483
  C         0.2285400647       10.4886117734       25.7457474648
  H         0.0885767355       14.1116866549       25.7717000629
  C        -0.3889244239       12.4464816253       26.7951865413
  H         3.8031996606       12.5846731889       23.3150719564
  H         3.4063417505       13.0259817256       24.8984058387
  C         4.8003959749       14.3801334952       24.1378968608
  C         2.4820257997        9.4198106733       19.8706686842
  C        -0.2843893641       11.1094067694       26.9021098045
  H         0.2901477237        9.4759706903       25.7076023527
  C        -0.8154774065       12.8426612691       28.0688434982
  H         5.6096603468       13.7514997877       24.5538546058
  H         4.4852387690       15.1480605714       24.7355942219
  C         5.3473245591       14.9009968750       22.8495901889
  C         2.3272489656        8.0777010929       19.5828701731
  C         2.8434240016       10.2459615178       18.6708230631
  C        -0.6516946884       10.4512118088       28.1919559112
  C        -0.8301828757       11.7485154870       28.9204902000
  S        -0.9994885947       14.2927126593       28.8606270596
  H         5.7837186279       15.7973488785       22.9871925208
  H         4.5045428780       15.0921605939       22.1904429378
  C         6.1976872987       13.8016447276       22.1034641763
  N         2.0246421042        7.1029227581       20.5513079247
  C         2.7079953695        7.4764859903       18.3388580107
  C         3.0379503605        9.6736191934       17.4350746147
  H         2.9725477435       11.2995634312       18.8319461114
  C         0.4565969326        9.6082886335       28.9387642950
  C        -2.0245170190        9.6273901002       28.0571943551
  C        -1.3293135756       12.0960252123       30.2314246353
  C        -1.4689361843       13.4576216982       30.3542387403
  H         7.2048805555       13.9902647145       22.2375475111
  H         6.0729505266       12.8540417674       22.5402084193
  C         5.9788277359       13.8070368500       20.5380358398
  S         1.8681238988        5.6260607266       19.8265799874
  N         2.4487835736        6.0417691492       18.3637485164
  C         3.1544828447        8.2258787383       17.2128961054
  H         3.2052113346       10.2498583467       16.6499429370
  H         0.8445007653        8.7771103939       28.3938029312
  H        -0.1445867998        9.0244732602       29.6899609953
  C         1.6697208293       10.3969283073       29.4324432110
  H        -1.9317982497        8.9931142805       27.2189245421
  H        -2.1019118499        9.0058550358       28.9162212966
  C        -3.2767215228       10.4720489199       27.7145421214
  H        -1.5584492312       11.2178351240       30.9064375138
  C        -1.9375974240       14.1522513151       31.6342435585
  H         5.6192009869       14.7091083521       20.0716970755
  H         5.1696888838       13.1069479793       20.2291354876
  C         7.3018845981       13.4082749522       19.8648958148
  C         3.3331034735        7.6159719451       15.9280555365
  H         2.0975587480       11.0052116608       28.6929207786
  H         1.4689495012       11.0284549532       30.2950599413
  C         2.7751378200        9.4430388739       29.7602372490
  H        -3.1034744132       11.0631018532       26.7699989579
  H        -3.4344104851       11.1753169115       28.5420558749
  C        -4.4964589241        9.5796613278       27.4772778879
  C        -2.0452255081       15.5442859390       31.7634809561
  C        -2.2600831083       13.3230001068       32.8587204175
  H         8.0646701118       13.9522544671       20.3432794482
  H         7.4015162720       12.3261989025       20.0108166186
  C         7.0739199197       13.7798074726       18.3829081356
  H         3.1753239392        6.5530423308       16.0314977946
  C         3.6798090426        8.1602599113       14.6465672246
  H         3.2828214973        8.9231488161       28.9425152368
  H         2.1673952007        8.6841191501       30.1337846390
  C         3.7590314904        9.9118067148       30.8798796387
  H        -4.3148604138        8.8456798237       26.7067552142
  H        -4.8949139136        9.1071068831       28.3535223608
  C        -5.6053577614       10.5527172349       27.0948959245
  N        -1.9823202459       16.4730053574       30.7152517535
  C        -2.3666310614       16.1796984906       32.8997746432
  C        -2.5339501311       14.0053119582       34.0483495738
  H        -2.1414824905       12.2921057545       32.8591099882
  H         7.7651555207       13.4890481290       17.6077803265
  H         6.1472206375       13.4225859235       18.0819239755
  H         7.0137598817       14.8870844077       18.2052727172
  S         4.0130230116        9.7791939068       14.2044892999
  C         3.7286137352        7.2029706715       13.5648762540
  H         4.0443157465       10.9800412124       30.6526631893
  H         3.2274003337        9.9806240519       31.8364372006
  C         5.0112905130        9.1336461555       31.1377018382
  H        -5.1751628771       11.2208116023       26.4002711084
  H        -6.1293915324       11.0843100505       27.9637738634
  C        -6.7186762696        9.7985050632       26.3824075066
  S        -2.0321057342       18.0024855676       31.3089218266
  N        -2.3378119412       17.6121932259       32.8457621002
  C        -2.6091393033       15.4728024760       34.1232106673
  H        -2.6053165074       13.3825820379       34.9800327317
  C         4.2218221278        9.1749939422       12.5800820973
  N         4.1703915806        7.7991387868       12.4283336053
  O         3.5047151895        5.9872773945       13.6754910548
  H         5.5307274677        9.7927355204       31.8810378249
  H         5.6145306293        9.1725821976       30.2250346667
  C         4.9208808892        7.6693444776       31.5971636311
  H        -6.4170806522        8.9065706844       25.8743827342
  H        -7.3492286225        9.5040136632       27.2021609464
  C        -7.5629060290       10.6586738872       25.4451734245
  C        -2.7505542059       16.2855609335       35.3036155690
  S         4.6279951585       10.0372575978       11.1443933300
  C         4.3384798417        7.1337937824       11.1928019900
  H         4.8363180313        7.7917841664       32.6464439663
  H         4.0648604507        7.2921218818       31.0979698799
  C         6.1811456007        6.7645211213       31.5156825431
  H        -7.0942623458       10.8221126060       24.5348555294
  H        -7.6820036722       11.6219538578       25.9442409561
  C        -8.9106260820       10.0443850666       25.2939699915
  H        -2.2846416037       17.2455128604       35.1864172576
  C        -3.2840816886       15.9632258662       36.4797557218
  H         5.1106326825        7.6289886286       10.5711992261
  H         4.7779016875        6.1265399233       11.4158943078
  C         2.9419612531        7.0081303907       10.6429037762
  H         6.0128405286        5.9507969486       32.2367176411
  H         7.0842996028        7.2722467153       31.8763624528
  C         6.4815718636        6.4346025773       30.0783740036
  H        -9.2217066347       10.3918404511       24.2743354485
  H        -8.7662361528        9.0178493538       25.2988378118
  C        -9.9553941686       10.5423685791       26.3176721102
  S        -3.6988180144       14.3480291284       37.1249430665
  C        -3.4299869877       17.0449156196       37.4920886080
  H         2.9172020936        5.8893139148       10.6210974581
  H         2.2095992597        7.5092881913       11.2774006953
  H         2.6472127515        7.1533810141        9.5853853992
  H         6.5329561597        5.3497585566       30.0702608281
  H         7.3656571463        6.9090217736       29.6655146485
  H         5.6246047781        6.6933429018       29.3954595812
  H        -9.6052766193       10.4528407101       27.3140070879
  H       -10.9046089734        9.9938984403       26.3039030537
  H       -10.0909647635       11.5866391544       26.1848592512
  C        -3.9339872588       15.1637255667       38.6607433836
  N        -3.7406763292       16.4912324948       38.7049502079
  O        -3.2493681928       18.1890480233       37.2590621286
  S        -4.4675198512       14.3688181177       40.1060081366
  C        -3.9374725102       17.3608456584       39.8649024183
  H        -4.2368586914       18.2225790144       39.3958946943
  H        -4.7244375681       17.0287968425       40.5609134920
  C        -2.6002271637       17.7126303743       40.6782872607
  H        -2.7390846737       18.6494536160       41.2819594578
  H        -2.4668020422       16.9342742950       41.3965646437
  H        -1.6822697538       17.7451271343       40.1631545387
  H         7.7812014533       11.6014263716        3.3439753137
  C         8.4528872957       10.7690116024        3.5596345231
  H         7.7215241893        9.9647157177        3.6812276208
  C         9.0055014645       10.9231994835        4.9372449647
  C         9.4205599648       10.5751810957        2.3910826952
  C         8.0515709357       11.1049002481        5.9685349300
  H         9.6461788481       10.0377690799        5.0406713076
  H         9.5748298496       11.8395505221        4.9011740876
  H        10.3636614415       10.0233692509        2.5690515164
  H         9.7028577593       11.5234178278        2.0894406756
  H         8.7299609611       10.1098669507        1.6476883653
  C         7.6671711859        9.7627712178        6.5947458952
  H         8.4172428979       11.8296927544        6.6981698510
  H         7.0673900595       11.4520591209        5.5597241820
  C         6.7049066963        9.9627149663        7.8632320320
  H         8.6192380530        9.3282336894        6.8731655150
  H         7.2669429789        9.0169674968        5.9318262062
  C         5.3597371274       10.7773797033        7.6221534048
  H         7.2042605598       10.3700239033        8.6293957360
  H         6.4030178222        9.0421924671        8.2279226665
  C         4.1840470875       10.0483420016        7.0755518873
  H         5.1376364317       11.1503029556        8.6116784997
  H         5.6133022130       11.6644478291        7.0540677253
  C         2.9008279466       10.9038303816        6.7914308369
  H         4.1502591135        9.1841703956        7.6743627364
  H         4.3882900759        9.6335762969        6.1243258604
  C         3.1987989384       12.1159965156        6.0729278994
  C         2.4411360882       11.5024529566        8.0535611044
  C         1.8549592248       10.0278397925        6.1633162376
  C         3.0071153352       13.1992091610        6.9133424287
  C         3.6885662097       12.5882678839        4.8270315796
  C         2.4696459416       12.8240213548        8.1528116625
  C         2.0302620350       10.8157838422        9.1837645107
  H         2.2611827742        9.5947980425        5.2606051646
  H         1.5749373351        9.1462166225        6.7799509194
  C         0.5790379590       10.9586804214        5.7868932173
  S         3.4659663626       14.7346440422        6.2233463307
  C         3.8012926088       13.9441081575        4.7305525662
  H         3.8637552518       11.9390420913        4.1072695594
  C         2.1059391586       13.5214266732        9.2706344046
  H         2.0301150108        9.7414329379        9.0979309472
  C         1.5901629559       11.5179194781       10.2943248965
  H         0.8951447095       11.9658109486        5.3098221824
  H         0.1610645586       11.2648136788        6.6994742695
  C        -0.5414140224       10.4135829130        4.8990864579
  C         4.3589934522       14.7179151442        3.5336301449
  C         1.7645402228       12.8503185703       10.4337946295
  H         2.3741657918       14.5398250446        9.3330292509
  C         1.1332670342       11.1232939553       11.5305880247
  H        -1.4616427122       10.8747812715        5.1753021342
  H        -0.5265676364        9.2989481792        5.1293248062
  C        -0.1804554519       10.6869783855        3.3875728027
  C         4.2816024844       16.0799486363        3.4279970860
  C         4.8532717529       14.0376880317        2.2938319827
  C         1.2492721945       13.5276602967       11.6324280750
  C         0.9255401021       12.2276131070       12.2984143203
  S         0.7570618345        9.6109399409       12.2370540613
  H         0.8826036313       10.8528531327        3.0566644843
  H        -0.5780955761       11.7130843757        3.3305968570
  C        -0.8903400360        9.8010359876        2.4615086997
  N         3.9689111046       16.9431015249        4.4831571730
  C         4.6180659466       16.8297201246        2.2808826602
  C         5.1871967070       14.7912194538        1.1868645944
  H         5.0315754683       12.9353993805        2.3399421054
  C         0.0145058110       14.3370419983       11.3821520886
  C         2.4128865574       14.3635005671       12.3950755126
  C         0.4991970505       11.8206108591       13.5867614219
  C         0.4091395175       10.4552692164       13.7575923164
  H        -0.5076685201        8.7432046378        2.7254432215
  H        -1.9442455319        9.7098998907        2.5067585303
  C        -0.4762816482       10.0508522352        1.0190615059
  S         3.6814106877       18.4170825278        3.9369109087
  N         4.1880626452       18.1334769173        2.4107823711
  C         5.0750761674       16.2473121544        1.0916090280
  H         5.6595270318       14.2644338629        0.3686123864
  H         0.2150478423       14.9347167821       10.5625107078
  H        -0.1985677715       15.1961789322       12.0418717201
  C        -1.2468264863       13.6286021279       11.0767184879
  H         2.6935371116       15.2633910255       11.8994211370
  H         1.7788007534       14.7482811007       13.1500818348
  C         3.6181034671       13.5710797383       13.0333668164
  H         0.3532764483       12.5965768680       14.2683900700
  C         0.1903211115        9.7987910733       15.1073582149
  H         0.3921832906        9.3436904997        0.8403334243
  H        -0.0377145576       10.9949635715        0.9830911446
  C        -1.5248170116        9.7533181820        0.0081598377
  C         5.2300803436       16.9980682136       -0.0800045736
  H        -1.1899762452       12.9913445097       10.1335184055
  H        -1.5229144031       12.9330495641       11.8787477380
  C        -2.3855726472       14.6958328999       10.9396479194
  H         4.2182458536       12.9905057104       12.3433775155
  H         3.1214554014       12.8254754944       13.7725291399
  C         4.4194066879       14.6210454196       13.8716029089
  C         0.0353477139        8.3867709480       15.3185219602
  C        -0.2378865094       10.5960678766       16.2912069818
  H        -1.8576661510        8.6799946056        0.1455975843
  H        -2.5128403770       10.2540848607        0.2019953342
  C        -0.9985581688       10.0410232124       -1.3795076321
  H         5.1485019190       18.0638021510        0.0618260168
  C         5.4043693713       16.5640308027       -1.3915088313
  H        -2.0486317272       15.2616616191       10.1062201795
  H        -2.4541846432       15.4272799061       11.7913092242
  C        -3.7527753022       14.0878572070       10.6820773180
  H         4.7093667628       15.3406595221       13.0876883229
  H         3.7875817042       15.2980652083       14.5214197319
  C         5.6727873480       14.0483080045       14.5402145559
  N         0.2514419505        7.4107434353       14.3443218667
  C        -0.2230733029        7.7889331604       16.5134378839
  C        -0.5041536423       10.0057035588       17.5126815884
  H        -0.2290858733       11.6232456637       16.1950174588
  H        -1.7363477337       10.0253815567       -2.1854817000
  H        -0.1357476876        9.4070094014       -1.7241473657
  H        -0.6326166061       11.0611706260       -1.4829542946
  S         5.7441825457       14.9424195373       -2.0605608202
  C         5.4998741376       17.7034188915       -2.4401999413
  H        -3.8248744570       13.1981329201       11.4239434478
  H        -4.5980738416       14.7802923595       10.8984216022
  C        -4.0403573012       13.6133523834        9.2363346045
  H         5.5422711531       12.9838083496       14.3765389673
  H         5.5465644272       14.1605195325       15.6956061511
  C         6.9747078276       14.7014433397       14.0302996690
  S         0.3342909737        5.9633216502       15.0544298269
  N        -0.2857545132        6.3826702594       16.4823999144
  C        -0.4488463066        8.5115284309       17.7024037038
  H        -0.8754754412       10.5715831795       18.3601834969
  C         5.8732577733       15.8035696160       -3.6332118932
  N         5.7994886757       17.1512398728       -3.6305885402
  O         5.2317910252       18.8934113899       -2.2254593927
  H        -4.0524928140       14.5874368031        8.7171656798
  H        -3.3051043898       12.9745903329        8.7804769592
  C        -5.3389183622       12.7730608851        9.0031945231
  H         7.7968483708       14.0402498196       13.7235554735
  H         6.6402311564       15.1339380473       13.0947109367
  C         7.6542082730       15.7026762822       14.8969706958
  C        -0.8418563225        7.7434766960       18.8918974622
  S         6.0240264450       15.0585429532       -5.2325029604
  C         5.7994175299       18.1117207877       -4.7522042101
  H        -5.2372209359       12.3326806922        7.9987497723
  H        -5.4044154653       11.8865638425        9.6699173973
  C        -6.5874170677       13.5739806487        9.0682953624
  H         8.6956464578       15.8231083170       14.5698663448
  H         7.7276985852       15.2414913482       15.8871175897
  C         6.9478227698       17.0097029160       14.7489734546
  H        -0.8229479756        6.6925106637       18.8546853143
  C        -1.4442282751        8.1147674943       20.0794506842
  H         6.4766296723       17.6344902629       -5.4362673306
  H         6.2579830835       19.1326505839       -4.5630399499
  C         4.4137794762       18.3161378286       -5.2172760476
  H        -7.0535570191       13.2490178061        8.1715618200
  H        -6.4397988568       14.6458157836        9.0121878149
  C        -7.5052870936       13.4429854042       10.2458739586
  H         6.7668520834       17.2406252395       13.7153215180
  H         6.0496281905       16.8791311434       15.3269632349
  C         7.7674216853       18.1077955831       15.4579004117
  S        -1.7978247939        9.6583947948       20.7473799750
  C        -1.5987021020        7.0144577367       21.0863550840
  H         3.9183054940       17.3449945156       -4.9867235020
  H         4.3735108481       18.5955386339       -6.2115420261
  H         3.8028528647       19.0156941247       -4.5715884141
  H        -7.8716394526       14.4384107293       10.7384822612
  H        -8.2393937756       12.7116087717       10.0995172568
  H        -6.8190729049       13.0683247687       10.9144352455
  H         8.1161137394       17.6080421045       16.3654968377
  H         8.7358244312       18.3176232483       15.0180310569
  H         7.4125417300       19.1138756732       15.5551271540
  C        -2.2970273255        8.8142769906       22.2059181892
  N        -2.2492566296        7.4980861852       22.1911238816
  O        -1.3201534497        5.8408519291       21.0055931842
  S        -2.8290797066        9.7626226786       23.6138027289
  C        -2.3252539540        6.7306898435       23.4014800524
  H        -2.5428897703        5.7205462152       23.2749477872
  H        -3.2131113476        7.0572853403       24.0397218388
  C        -1.0083538113        6.8277840147       24.1870042394
  H        -0.2558009301        7.2629259366       23.4437609016
  H        -0.8089477198        5.8400052196       24.5518889057
  H        -1.0770197671        7.4838340955       25.0918322754
