352
i =
  H        -3.7808620165       14.7450790101       16.5574745450
  C        -3.1829529595       13.8863113232       16.3291938503
  H        -3.8864931648       13.0662268093       16.4465214826
  C        -1.8754081711       13.8201039823       17.2071701362
  C        -2.8744518687       13.8654870913       14.8405220667
  C        -2.2867199962       14.1156714219       18.6761507864
  H        -1.4452946270       12.8370910719       17.2072977445
  H        -1.1630364338       14.6057658616       16.9660475660
  H        -3.1385543784       12.9188872131       14.4414256812
  H        -3.4334336608       14.5570630899       14.3027697775
  H        -1.7651701284       13.9948140278       14.6688919182
  C        -1.7996694528       13.0645158656       19.6752557617
  H        -3.3999993089       14.2210298121       18.5929338814
  H        -1.8127318877       15.0182649854       18.9869207196
  C        -2.2868249667       13.4647059783       21.0543936219
  H        -2.2481151946       12.1581156732       19.2893759795
  H        -0.6797119423       12.9780541843       19.5832034212
  C        -1.5056925394       12.8241823011       22.2273287447
  H        -3.4028283866       13.2709093759       21.1086539237
  H        -2.0898506342       14.4907590212       21.1617590759
  C        -0.2289034175       13.5903181669       22.5576576316
  H        -2.0802798487       12.6476725060       23.1590131047
  H        -1.1565717180       11.8249435752       21.8698067162
  C         0.9441236838       12.8372465754       23.1681006594
  H         0.1065603002       14.0087766913       21.6693833174
  H        -0.5029230959       14.5065838047       23.0999876315
  C         1.2780474740       11.4935903029       22.6024940143
  C         0.4721567649       12.2407549201       24.4207245719
  C         2.1882078566       13.7653838764       23.1695939546
  C         0.9769548823       10.4419355213       23.4728920027
  C         1.7981462332       11.0719363385       21.3774214764
  C         0.4481010269       10.9090267194       24.6027616940
  C         0.2456610249       12.9552097786       25.5693989151
  H         2.4685310128       14.0001911385       22.2115758275
  H         1.9616760275       14.7412172816       23.6588632542
  C         3.3567407088       13.2030411986       24.0082817510
  S         1.4315626579        8.9017988081       22.7979218674
  C         1.9263071200        9.7431938820       21.3347507434
  H         1.9591199118       11.7854573436       20.6364043480
  C         0.1009212658       10.3234961130       25.7960260062
  H         0.2581744012       14.0789230485       25.4495412903
  C        -0.1621023583       12.4266288576       26.7581133729
  H         3.5320147706       12.1927551663       23.7076507280
  H         3.0308920500       13.1510046239       25.0315667194
  C         4.7481382540       13.8337387876       23.8182981058
  C         2.3145935112        9.0188534419       20.1065775231
  C        -0.2474420762       11.0664202445       26.9251115730
  H         0.1187204565        9.2648680135       25.9940377239
  C        -0.5470476219       12.8846772608       28.0479674829
  H         5.4958112008       13.1786626202       24.3294475140
  H         4.7784662526       14.7368285096       24.3701590635
  C         5.3408373552       14.0053591178       22.4470566540
  C         2.3094680453        7.6643193401       19.8427640841
  C         2.7794982872        9.8286975645       18.9240138818
  C        -0.6193511067       10.4947207340       28.2503149077
  C        -0.8951617800       11.8756606465       28.9332106833
  S        -0.7769818375       14.4009416623       28.6446141445
  H         6.2497244666       14.5947208710       22.5736496042
  H         4.7077414215       14.5763907706       21.8169595901
  C         5.6835681487       12.7473605874       21.6500053235
  N         2.1832449315        6.7216423724       20.8962332623
  C         2.4955382095        7.0583503347       18.6664334500
  C         3.0284646333        9.2505276067       17.7364958937
  H         2.9456662106       10.8899220444       19.0080247338
  C         0.4698008692        9.7497605757       29.0599547674
  C        -2.0409340284        9.7795973625       28.1542879720
  C        -1.2456534292       12.3321966142       30.1267037961
  C        -1.3423581402       13.6895546809       30.1315393247
  H         6.4799858857       12.2694195467       22.1730846502
  H         4.9402098886       12.0572111636       21.5345582878
  C         6.2138801998       13.1200889906       20.2863853287
  S         2.1702547120        5.2275189464       20.1914337896
  N         2.4775666713        5.6378665883       18.6696998599
  C         2.9040284176        7.8118350426       17.5067972456
  H         3.1448325312        9.8501989318       16.8774025365
  H         0.7030897345        8.8864883892       28.4896387140
  H         0.0238530427        9.4722858741       30.0210779031
  C         1.7253318608       10.4877219156       29.2895978697
  H        -2.0066300289        8.9684224014       27.4521185249
  H        -2.2961697550        9.3755942042       29.1394227195
  C        -3.2556683556       10.6600925360       27.8987842641
  H        -1.4978316064       11.6710044495       30.9177860507
  C        -1.5908285712       14.5446596180       31.3365195789
  H         6.0895708738       14.1379921992       20.0215174755
  H         5.5995618019       12.5075630037       19.5328832183
  C         7.6667260853       12.8496124540       20.0580808155
  C         3.2304376518        7.1550870436       16.3076188777
  H         2.0779812592       10.9391570322       28.4004176856
  H         1.6241618825       11.3288260561       29.9311280358
  C         2.6496595602        9.5464824767       29.9268273459
  H        -3.1546073095       11.1501759232       26.9458679351
  H        -3.5478818792       11.3601262323       28.6290826811
  C        -4.5603306603        9.9233389474       27.5856854896
  C        -1.6878630973       15.9004368044       31.3930794548
  C        -1.7588643112       13.7766721079       32.6010425563
  H         8.2464537177       13.3205810040       20.8916161554
  H         7.7631794443       11.7482910053       20.0883262919
  C         8.1211664000       13.2668377395       18.6232001429
  H         2.9519493322        6.1632549870       16.2870486545
  C         3.4278248444        7.7116134435       15.0906736496
  H         2.6920181829        8.6803610136       29.3455130063
  H         2.1882843849        9.3645550987       30.9395712359
  C         4.0373633181       10.0814775217       30.2274781547
  H        -4.5113527679        9.1962627257       26.8138369288
  H        -4.8979697943        9.3801615773       28.4809423688
  C        -5.6692435501       10.9352511562       27.2494819213
  N        -1.5504148742       16.7213634777       30.3382434984
  C        -2.0323290894       16.5141929658       32.5600216051
  C        -2.0210313616       14.4760085341       33.8356051703
  H        -1.7089966091       12.7206445749       32.6351105305
  H         8.4580496209       12.4074527468       18.1264186454
  H         7.2209923415       13.6920543727       18.1327790991
  H         8.8759624869       14.0639964271       18.6042731475
  S         3.6146676021        9.2887861679       14.5686696421
  C         3.4106840337        6.7115223158       13.9303412449
  H         4.2784981186       10.7995250721       29.5186013603
  H         4.0051651607       10.6161211427       31.1378816113
  C         5.0868870516        8.9818351478       30.2023850539
  H        -5.2725073690       11.5979393721       26.4953812752
  H        -5.8691725021       11.4912920075       28.1065814324
  C        -6.9563382119       10.2856408874       26.9248022544
  S        -1.6293823741       18.2775546654       30.8980616977
  N        -1.9116502940       17.8885534431       32.4650563318
  C        -2.1683482532       15.9162617220       33.8439369469
  H        -2.2923639138       13.8917793723       34.6872486860
  C         3.9688854070        8.6502367463       12.8775516070
  N         3.8078126360        7.3161421410       12.7744874515
  O         3.0665883157        5.5473337225       14.0641449550
  H         6.0018153944        9.5968184082       30.2092227951
  H         5.2243406199        8.4374045327       29.2154331123
  C         4.8632788726        7.9890643929       31.2825137986
  H        -6.8690353957        9.1246032245       26.8498075626
  H        -7.6682314699       10.6137202320       27.6884366321
  C        -7.3873547893       10.7488010645       25.4804431061
  C        -2.4559752955       16.7637470868       34.9967166402
  S         4.5725208421        9.6123700394       11.5254222979
  C         3.8862561542        6.5936914728       11.4607798067
  H         4.6276834120        8.4316506120       32.2269412307
  H         3.9821008977        7.4317715853       30.9410052244
  C         6.0410721975        7.0981664372       31.3541845385
  H        -6.4913899615       10.5009404453       24.8444688813
  H        -7.6056911702       11.7199085949       25.5489653702
  C        -8.6964937684       10.0463830375       24.9094411705
  H        -2.2678936758       17.8548989493       34.8252887706
  C        -2.8435233611       16.4534411547       36.2752998846
  H         4.5328233637        7.0539666863       10.6979961497
  H         4.3989544124        5.5777179328       11.4984344983
  C         2.4872805581        6.4147763259       10.8527803621
  H         6.0391050031        6.5779662196       32.3097231502
  H         6.8863735266        7.7408842367       31.3519575920
  C         5.9609076573        5.9740451690       30.2974879257
  H        -8.9543726809       10.5997266072       24.0437884339
  H        -8.4654271095        8.9810397406       24.5867409142
  C        -9.9720446205       10.0050176322       25.8377560421
  S        -3.4254271301       14.9818596717       36.9183864435
  C        -2.9797994670       17.6520130189       37.2456785836
  H         2.3398101686        7.2643380581       10.1542436025
  H         2.6618691022        5.5299702776       10.2458997665
  H         1.6169797369        6.2315887403       11.5344644130
  H         6.8825064283        5.4021512855       30.4430998013
  H         6.0167861181        6.3048418141       29.2958675907
  H         5.1199395360        5.3290489312       30.4017643737
  H        -9.8192406747        9.5113408117       26.8216509087
  H       -10.6951834643        9.3889464918       25.2434227083
  H       -10.5757765750       10.9743982642       25.8955871254
  C        -3.6124335920       15.8241338241       38.3978609646
  N        -3.5208840316       17.1484353601       38.4032908829
  O        -2.7827558729       18.8246551681       36.8679894946
  S        -4.0897708501       15.0088875668       39.8862933503
  C        -3.5951877063       17.9894692580       39.5745049784
  H        -3.6873224871       19.0633119906       39.2947157879
  H        -4.4410176381       17.8275781998       40.2037650053
  C        -2.2212705309       17.8779005755       40.3319918590
  H        -1.4191359082       17.8613929808       39.5992151047
  H        -2.0157166903       18.7436342047       40.8814298486
  H        -2.1812899157       16.9973881665       40.9712994915
  H         7.0088706437       10.9025438459        3.7003199307
  C         7.8591216077       10.2055585574        3.8046001555
  H         7.3641575130        9.2680011680        4.0196941420
  C         8.7818870105       10.5834750201        4.8897638516
  C         8.4129469302       10.0217650515        2.3384338123
  C         8.2415334675       10.6832109666        6.3221419008
  H         9.5467022025        9.7811377871        5.0497013736
  H         9.4196494226       11.4072714736        4.5298698822
  H         7.6847687325       10.4888375672        1.7371943261
  H         8.5055891989        8.9101320398        2.1369323818
  H         9.4042773542       10.5017384275        2.2534245630
  C         7.4146495413        9.4931600042        6.7240698356
  H         9.1322928435       10.9454090214        7.0118123862
  H         7.6503924006       11.6188932379        6.3548021862
  C         6.8527125358        9.5142906874        8.1799360429
  H         8.0291184683        8.6178214804        6.5135016288
  H         6.5570314185        9.4277541737        5.9817894922
  C         5.5369764528       10.2301668845        8.1240972597
  H         7.4305746594       10.1555451836        8.8182899612
  H         6.6111151325        8.5360150500        8.5495081296
  C         4.2452437608        9.4978817208        7.6044975248
  H         5.3661799926       10.6857813243        9.0893504917
  H         5.8062157199       11.0851070488        7.4873658021
  C         3.0407243460       10.3258824500        7.2076549997
  H         3.9382572369        8.7481273034        8.3010316208
  H         4.4075084979        8.9039211229        6.6313783061
  C         3.5246795633       11.7234335036        6.5302321883
  C         2.4542374631       11.1405333335        8.4020996181
  C         1.8485288722        9.6759945366        6.3336854614
  C         3.1450496018       12.8100221643        7.3200503094
  C         3.9034542576       12.1346128684        5.2768889839
  C         2.5090229321       12.4889148748        8.5330161159
  C         1.9441254443       10.4976820933        9.5701010255
  H         2.2660288910        9.1764649074        5.4466297334
  H         1.3575605869        8.9222354007        6.8387142132
  C         0.8212087730       10.7254420741        5.8775292390
  S         3.5046248173       14.3381218236        6.5894506604
  C         4.0388192384       13.5007895357        5.1900680227
  H         4.0204296000       11.3492207007        4.4756846872
  C         2.1686724692       13.1461738069        9.6441041248
  H         1.9160511200        9.4425067569        9.5891244279
  C         1.5177462920       11.1501664935       10.6882062152
  H         1.3179906499       11.5925813713        5.3562451808
  H         0.1847553784       10.9676809766        6.7610753124
  C        -0.3029748818       10.0497650658        4.9735929436
  C         4.3641669197       14.2737124819        3.9520585270
  C         1.5965210205       12.4979961940       10.7932853568
  H         2.3142637516       14.2330525033        9.7484063863
  C         0.9905638414       10.7489164361       11.8818009643
  H        -1.1582735908       10.8204200359        4.8580069760
  H        -0.7971535553        9.1211361475        5.2801593508
  C         0.2745127699        9.8041233426        3.5075878172
  C         4.2161996043       15.6189985198        3.6784920786
  C         4.6705322595       13.4258824482        2.7461388494
  C         1.1796302535       13.2130545583       12.0730241989
  C         0.8450655084       11.8473010823       12.7300139002
  S         0.5753123587        9.2769763677       12.6573551250
  H         0.8707317641        8.9093899443        3.6419797154
  H         0.9809540005       10.6180538233        3.3360057648
  C        -0.8274548159        9.6424802614        2.4197057096
  N         3.7635786253       16.5845791131        4.6227686536
  C         4.4975139521       16.1700696647        2.4434536230
  C         4.9387284395       14.0376539450        1.5518611182
  H         4.6804572330       12.3453781050        2.7708708619
  C        -0.0385738257       14.1453804471       11.7848277710
  C         2.2506617164       14.0691217051       12.7723385407
  C         0.3280828274       11.5183244541       14.0177119769
  C         0.2652021632       10.1162085862       14.1531231024
  H        -1.6087217031        8.9121665895        2.8061994801
  H        -1.3239463998       10.6358133451        2.3805150125
  C        -0.0748150650        9.2062718681        1.1902347807
  S         3.8533308345       18.0411320924        3.9126772311
  N         4.2510104586       17.5391658197        2.4177548246
  C         4.7684684377       15.4689135790        1.2697171863
  H         5.2958770345       13.5048144860        0.6624996992
  H         0.2638957698       14.9737897435       11.1472115755
  H        -0.3154976511       14.5380151731       12.7649642909
  C        -1.1517035373       13.4686834162       11.0762036742
  H         2.8677282685       14.4653827370       11.9631348298
  H         1.7419270192       14.8251969623       13.4632342352
  C         3.2325157410       13.2138660875       13.6378012327
  H         0.1298678837       12.2952490823       14.7173241931
  C         0.0200397504        9.3938481539       15.3956065207
  H         0.4292412824        8.2309066423        1.3254986709
  H         0.5678047939       10.0242495670        0.9553380957
  C        -1.0861160729        8.9331037841        0.0837441103
  C         4.9214866146       16.2162162573        0.0355091645
  H        -0.7576793036       13.2097195269       10.0420348966
  H        -1.3277846322       12.5324914721       11.6009839184
  C        -2.4047205830       14.3654432113       10.8969574927
  H         3.8109179571       12.6453131335       12.9313396898
  H         2.7693534113       12.4559593521       14.2876149297
  C         4.1204562776       14.0675651521       14.5096271543
  C        -0.1026528138        7.9800282983       15.5187023849
  C        -0.0006581835       10.0565870764       16.6648430013
  H        -0.8834817394        7.9364985884       -0.2143994948
  H        -2.0552989212        8.9973549370        0.5553538623
  C        -1.0144567320        9.9144709941       -1.1210756567
  H         4.9836760734       17.2502680165        0.0876047500
  C         5.1458116495       15.7437964557       -1.2359544916
  H        -2.1151905099       15.3610444164       10.4892805016
  H        -2.8794416554       14.5223074888       11.8589870011
  C        -3.3816513282       13.7807629394        9.8619358496
  H         4.6555747976       14.6915601808       13.7640928744
  H         3.6262990157       14.8343738012       15.1806883546
  C         5.0932415706       13.3023213217       15.4433225519
  N         0.0221897676        7.0888144272       14.4392309081
  C        -0.2445118867        7.3597074160       16.7459769892
  C        -0.2267971082        9.4508829155       17.8921936758
  H         0.2392296905       11.1235839159       16.7675986468
  H        -1.5590752150        9.5026814416       -2.0500043411
  H         0.0475999729       10.0888921793       -1.4162805153
  H        -1.4452503023       10.8799232432       -0.7617658685
  S         5.4975650532       14.1985084346       -1.7109933017
  C         5.2723906463       16.8315141233       -2.3359403986
  H        -3.5365564025       14.6685137965        9.2357720514
  H        -3.0469481415       13.0776275334        9.1497141875
  C        -4.5412941505       13.2086701834       10.5236877947
  H         4.7050193361       12.3232656950       15.6618858137
  H         5.1612952155       13.8258394115       16.3371797842
  C         6.4115316292       13.1254805284       14.7109540338
  S        -0.0363335746        5.5261343353       15.0401133211
  N        -0.3696937561        5.9882966885       16.5714723787
  C        -0.4771398904        8.0345031326       17.9762101281
  H        -0.2087224748       10.0344909464       18.8199338729
  C         5.8359162151       14.8360371592       -3.2735822502
  N         5.6677484569       16.1797135024       -3.4356549761
  O         5.0645664025       18.0087967792       -2.1741605419
  H        -4.1740906231       12.4432844149       11.1541121917
  H        -5.0603380075       13.9817281115       11.0779182560
  C        -5.4511792155       12.5429496981        9.4925677914
  H         7.1376057810       12.4633083003       15.2613176582
  H         6.2833976618       12.6752464567       13.7708039627
  C         7.1816147595       14.4464546038       14.5328058569
  C        -0.7827902318        7.2814883267       19.1708730885
  S         6.2191125638       13.9018065923       -4.6643624480
  C         5.7264901630       16.8886688011       -4.7592942534
  H        -4.8637890526       11.8899342158        8.8507284847
  H        -6.0680852951       11.8779697828       10.0565833885
  C        -6.3478413157       13.4287752570        8.5624691541
  H         6.5824853823       14.9968806668       13.8889775516
  H         8.0538404950       14.2007281604       13.9350375232
  C         7.5487858283       15.2999025062       15.7943879880
  H        -0.7257306835        6.2553531901       18.9863560660
  C        -1.2169863541        7.6534725484       20.4454837891
  H         6.5057196599       16.4793572429       -5.4174843212
  H         6.0980713900       17.8764895432       -4.6097360687
  C         4.3449234894       16.9758882382       -5.4341093280
  H        -6.5291394053       12.8223084088        7.7152142988
  H        -5.6168843419       14.1909965147        8.2441103442
  C        -7.6274316021       13.9375257301        9.1258192236
  H         6.8192936819       15.6122217554       16.5058624539
  H         8.2286293985       14.6077014701       16.3673695490
  C         8.2756430894       16.6019689361       15.2704594161
  S        -1.8566764639        9.2278180642       20.8098931598
  C        -1.3948176272        6.6690544780       21.4860329611
  H         4.2832003133       16.2145889828       -6.2550182263
  H         4.2727865869       17.9454323919       -5.9295698199
  H         3.6102478118       16.8130052194       -4.7058373095
  H        -7.8291082858       13.3938449739        9.9795939747
  H        -7.4159378495       14.9512094265        9.4408812237
  H        -8.4748750463       13.8592672350        8.4922361405
  H         8.6126005819       17.1089400577       16.1315452429
  H         9.0100256042       16.3629465281       14.5723345402
  H         7.5872304706       17.2951558348       14.7430973831
  C        -2.2025587845        8.6257832988       22.4237661632
  N        -1.9802979577        7.2911079809       22.5375842239
  O        -1.1747147817        5.4666780147       21.2964135605
  S        -2.8303567743        9.6551973214       23.8019983947
  C        -2.3312298328        6.5593972459       23.7423515593
  H        -2.8987814506        5.6641162277       23.4436174651
  H        -2.8792284491        6.9698195914       24.5630884336
  C        -1.0440827978        5.9891765634       24.4097812500
  H        -1.1798336717        5.7192741007       25.4022754100
  H        -0.2633874521        6.7298077856       24.4922098215
  H        -0.5372991851        5.2064403327       23.8441385722
