352
i =
  H        -2.3365595394       15.3347841763       15.0739781108
  C        -2.8670119961       14.6246338385       15.6759937050
  H        -3.6923385688       15.3107033634       15.9890278732
  C        -2.0020535457       14.1418676480       16.9172513156
  C        -3.4145476967       13.4632809261       14.7469941757
  C        -2.7568648977       14.3114376123       18.2327281151
  H        -1.7962192788       13.0539983940       16.6727957012
  H        -1.1026846877       14.6513520686       16.7729095266
  H        -3.6878334018       13.8119943944       13.7249135009
  H        -2.6747964219       12.7236610789       14.5099234695
  H        -4.3052992249       13.0143320028       15.2084735660
  C        -1.7349007145       14.0154187404       19.3187673021
  H        -3.6446164454       13.6452642891       18.2776938720
  H        -3.0074226612       15.3254991447       18.3836725510
  C        -2.2599085605       13.9774692387       20.7119566995
  H        -1.2008202018       13.0848623793       19.0985179949
  H        -1.0659905573       14.8419100606       19.2391389082
  C        -1.2860547803       13.3757005017       21.7440422928
  H        -3.2669486603       13.5881403469       20.7845659916
  H        -2.6230599358       15.0930536177       20.8721502816
  C         0.0510535688       14.1628415582       21.8755236621
  H        -1.7482964606       13.5157442297       22.7170293161
  H        -1.0268051071       12.3355942125       21.5380115987
  C         1.1335245869       13.4127096652       22.7859375428
  H         0.4984566997       14.3052266561       20.9369184996
  H        -0.2536246733       15.0742896543       22.4206527083
  C         1.6387613147       12.1165304372       22.2509228649
  C         0.5850493831       12.7812753412       24.0160009834
  C         2.3563135819       14.3263043498       23.1140583635
  C         1.2758745913       11.0208942111       23.0139120590
  C         2.1975950101       11.7012980752       21.0376958403
  C         0.6898463448       11.4762888021       24.2020543479
  C         0.0590453481       13.4609957353       25.0657962116
  H         2.5953938710       14.8912498660       22.1678992056
  H         2.1034663184       15.1010992721       23.8713528231
  C         3.5916980320       13.5870564902       23.6384590617
  S         1.7078835891        9.5146244788       22.3580631984
  C         2.1449526404       10.3652018839       20.9069786242
  H         2.5180749012       12.4298002959       20.3350325808
  C         0.1867457471       10.8834522190       25.3125964421
  H         0.1652218358       14.5083270941       24.7897756843
  C        -0.4297047142       12.8873291622       26.1684700949
  H         3.8669310485       12.8126210192       22.9103883504
  H         3.1983337917       13.1027777172       24.5057283706
  C         4.7884842826       14.5445786420       23.9595046554
  C         2.4580399763        9.6523691673       19.7221217594
  C        -0.3837002493       11.5715025100       26.4200835892
  H         0.1461898709        9.8788670542       25.3008229928
  C        -0.9200005431       13.3722259074       27.3890750235
  H         5.5972323403       14.0425307639       24.4569179870
  H         4.3935514830       15.2575252516       24.6379255644
  C         5.4124270435       15.2147352330       22.7670815311
  C         2.3374454776        8.2665887493       19.5171787835
  C         2.9664943606       10.3755674395       18.5656899352
  C        -0.8900684594       10.9143127946       27.6532554157
  C        -1.1866734119       12.2902846868       28.2439881752
  S        -1.1835065396       14.9258458027       28.2089125813
  H         5.8817917942       16.0792978371       23.1431148792
  H         4.6566607359       15.4738153085       22.0507253031
  C         6.5417494347       14.3533841746       22.1702038112
  N         1.6976229781        7.3818484615       20.3377128387
  C         2.5404033971        7.7344816257       18.2305595161
  C         3.3092919061        9.7403000588       17.4051425995
  H         3.3349078944       11.3134212446       18.8077372201
  C         0.1818681391       10.1080113706       28.3418858565
  C        -2.1868748189       10.0014118641       27.3949775571
  C        -1.6567337001       12.7179595354       29.4752550213
  C        -1.5601368337       14.0788418718       29.6523411971
  H         7.4511947463       14.8248125291       22.1270270232
  H         6.8070574856       13.5782732654       22.8450462818
  C         6.1581571042       13.9630553690       20.6741564572
  S         1.7737649112        5.8600502160       19.6847311101
  N         2.3217809792        6.3575611483       18.2451208299
  C         2.9918957049        8.3352371643       17.1023561824
  H         3.7988241895       10.2856459477       16.6141432074
  H         0.6027379311        9.5475736326       27.4792236785
  H        -0.3240183188        9.3907646546       29.0226254927
  C         1.2688790422       10.9365504841       29.1137580226
  H        -1.9206325157        9.2321970145       26.6246868411
  H        -2.5139680236        9.4780898457       28.2771661829
  C        -3.3085195673       10.9419124132       27.0695613603
  H        -1.8628651189       11.9060065151       30.2687060948
  C        -1.8961804111       14.7249217545       31.0410345051
  H         5.4890260782       14.7218913912       20.2068799430
  H         5.4765301097       13.0798536962       20.6071873538
  C         7.4145275884       13.6873508426       19.7539546720
  C         3.2528747733        7.5735344769       15.9475480686
  H         1.8042063199       11.6033573258       28.4295190596
  H         0.7950647016       11.5164486975       29.9493242823
  C         2.2349177067        9.9149204756       29.7309726398
  H        -3.1547045072       11.5889855560       26.2363235733
  H        -3.5339056266       11.4525614745       27.9433311503
  C        -4.5303083234       10.0608303618       26.8839244626
  C        -1.9922365339       16.0946911196       31.2881579270
  C        -2.1075447106       13.9233762594       32.2559841907
  H         8.1259956663       14.4849003437       19.8419189343
  H         7.9741704748       12.7626333991       20.0306511730
  C         7.0180390368       13.7999821439       18.3004345823
  H         3.0355269064        6.5390297630       15.8827503834
  C         3.4293315438        8.0526453747       14.6063782402
  H         2.1285526355        9.1482752893       28.9046322693
  H         1.8279049955        9.3613358346       30.5393535374
  C         3.7052368171       10.5091860048       29.9226429257
  H        -4.3122642129        9.2742906578       26.1351585007
  H        -4.7662574593        9.5873522731       27.8376383883
  C        -5.7935657344       10.8502683130       26.3232409551
  N        -1.6925129211       17.0105745125       30.3314108058
  C        -2.1257318296       16.6589985064       32.5492111467
  C        -2.4286370599       14.3952634181       33.4641385482
  H        -1.8912957350       12.8780641233       32.1906013580
  H         7.6708232984       13.2232174986       17.6225149556
  H         5.9673878271       13.5670938316       18.1489026556
  H         7.1902429707       14.8542566929       17.9773716397
  S         3.7829992779        9.6266386109       14.0821186896
  C         3.4181087299        7.0575092265       13.4996038147
  H         3.8781164191       11.2719852446       29.1418707812
  H         3.5421356048       11.0513746438       30.8510394284
  C         4.7284648307        9.4148853179       29.9801737156
  H        -5.4720200270       11.1297364062       25.3641644045
  H        -5.9455438609       11.8405323288       26.7807897132
  C        -7.0723831863        9.9803715587       26.2411253037
  S        -1.5659924390       18.5003292872       31.0215469630
  N        -1.9533905489       18.0284807708       32.5488755347
  C        -2.3441254583       15.8891579510       33.7648244023
  H        -2.5531405184       13.6931960452       34.3381816459
  C         4.0946699417        8.9242092934       12.4897797385
  N         3.7596311799        7.6302620024       12.3481303127
  O         3.3577761285        5.8052654078       13.6843601557
  H         5.7356933434        9.8444880445       29.9909674117
  H         4.5869895595        8.8404397126       29.0509003401
  C         4.4076062816        8.4884030107       31.0686879979
  H        -6.9246507532        9.0915667199       25.6753951151
  H        -7.1945087943        9.6453764554       27.2207251479
  C        -8.1666184966       10.7132061670       25.5625756788
  C        -2.6670739164       16.5899621147       34.9630435824
  S         4.4372367658        9.8516142344       11.0083160835
  C         3.8306746379        6.8937883242       11.0363976790
  H         4.2107302672        9.1184984876       31.9554021636
  H         3.4653385997        7.9012540338       30.8312279837
  C         5.5918573017        7.5521018025       31.4108528758
  H        -7.7720876490       11.0754485545       24.6606026254
  H        -8.5340493087       11.6060331445       26.0635471636
  C        -9.4203483281        9.9802650191       25.2116887986
  H        -2.7532430918       17.6294022612       34.8109192822
  C        -3.1376577109       16.1475104641       36.1721147313
  H         4.7247159792        7.1762357446       10.4856057360
  H         4.0492392177        5.8187690747       11.1750394101
  C         2.5027956058        7.0754747727       10.3545329985
  H         5.3168294411        6.6478830526       31.9634942338
  H         6.3289120426        7.9902357602       32.1083565571
  C         6.3912206189        6.9489954365       30.1989686044
  H       -10.0728516630       10.5894355019       24.5948446128
  H        -9.1471385318        9.2472099694       24.5397885347
  C       -10.1270264424        9.4659746425       26.4325034123
  S        -3.4085405066       14.5339272077       36.6004203964
  C        -3.1452799141       17.1226077165       37.2338570391
  H         2.4947429033        7.5874546257        9.3714998150
  H         2.1622005762        6.0541782820       10.4516923372
  H         1.9026386050        7.7206541583       10.8990781153
  H         6.8818249572        6.0013497331       30.4178112423
  H         7.0210820920        7.6272105869       29.6583560988
  H         5.5422209368        6.7902289695       29.5686062478
  H        -9.5587428304        8.9149223774       27.1750358205
  H       -11.1454534467        9.1262554199       26.1985981317
  H       -10.5712224334       10.2835085264       26.9515124707
  C        -3.8007058303       15.2033011608       38.2240674926
  N        -3.6249371914       16.4937956252       38.3434520272
  O        -2.7418571670       18.2310587296       37.1920832927
  S        -4.2994940305       14.2321957831       39.5815125611
  C        -3.6774753162       17.1498154720       39.6955796857
  H        -3.9943625240       18.1424056489       39.5206219699
  H        -4.4459242220       16.8344077805       40.3619364297
  C        -2.2639425560       17.1059825373       40.3721543935
  H        -2.2422619125       17.4142005098       41.4668936606
  H        -1.9764352248       16.0998464325       40.5025623405
  H        -1.4951240923       17.5322026484       39.7950616719
  H         7.2342456028       11.0962728974        3.2292996917
  C         7.6591179278       10.1574547312        3.0860016113
  H         6.8993627850        9.3087664396        3.0615020637
  C         8.3970017916       10.2657951490        4.4207186799
  C         8.5269555005       10.0613523921        1.8673128070
  C         7.5447091738       10.6840684770        5.6802665215
  H         8.8603737632        9.2728474220        4.5953883159
  H         9.1838212675       10.9283355208        4.0848669583
  H         9.0524159961        9.1114267596        1.8090699760
  H         9.2015187764       10.8189740903        1.7212448657
  H         7.7579703454       10.1199122191        1.1856585639
  C         6.6995981688        9.5129492919        6.3490875311
  H         8.1400957146       11.0495271372        6.5025086602
  H         6.8190283148       11.5193232212        5.4677156525
  C         6.1388513956        9.8993122188        7.6913431067
  H         7.2511859314        8.5964290037        6.4210612796
  H         5.9140347838        9.3285203231        5.6334569451
  C         4.9473029042       10.8190861197        7.5463774153
  H         6.8783587931       10.3666208414        8.1859538911
  H         5.8567807603        9.0393163498        8.2656606603
  C         3.6430109822        9.9906465802        7.2141476617
  H         4.8233655967       11.3881534914        8.3885929615
  H         5.1162833338       11.6277338794        6.8835679285
  C         2.4162858483       10.9534472931        6.9084075653
  H         3.4075253444        9.3354808198        8.0521411292
  H         3.8148670794        9.4035175419        6.3442822722
  C         2.7455005612       12.3055252905        6.2393420690
  C         1.9604743832       11.6539536878        8.1633723220
  C         1.2052655509       10.2754840729        6.1481977453
  C         2.5508302999       13.3616309068        7.0420401912
  C         3.3450848711       12.6382728646        5.0519888388
  C         2.0470646450       13.0047349374        8.2853043046
  C         1.5579809779       10.9785571561        9.3074604361
  H         1.6124539424        9.8547353549        5.1931327018
  H         0.8230853839        9.4201560322        6.6883042500
  C        -0.0506873236       11.1844695359        6.0697417792
  S         3.0051932177       14.8149850114        6.3722169248
  C         3.4179831461       14.0049994847        4.9215742105
  H         3.6707455037       11.8095837036        4.4614153729
  C         1.7638246321       13.5995277435        9.4547887694
  H         1.5097000017        9.9089155316        9.2705274631
  C         1.2187163603       11.5748361447       10.5353421832
  H         0.0401519724       12.2386351399        5.9671546086
  H        -0.3549832483       11.1143139293        7.1229456794
  C        -1.1044281563       10.7467467999        5.0445851493
  C         3.9921558004       14.7192016383        3.8016296281
  C         1.3302958158       12.9106738494       10.6423700270
  H         1.7442384553       14.6625961197        9.5673432905
  C         0.8442822102       11.1997655122       11.7682069492
  H        -2.0180170776       11.3181515637        5.3201923485
  H        -1.3709895307        9.6598404846        5.1251410859
  C        -0.7381399796       11.1489894558        3.5940905995
  C         3.9649255837       16.0786950212        3.5575721164
  C         4.4839290165       13.8307936403        2.7758445474
  C         1.0080689857       13.6104417878       11.8766801106
  C         0.6896733240       12.3309602656       12.6209328569
  S         0.5950394541        9.7089663286       12.5235041590
  H         0.2496740906       11.6091022261        3.5199789795
  H        -1.4014369342       11.9898476438        3.3258594455
  C        -0.6941484591       10.0524342624        2.5464495242
  N         3.6042575579       17.1475222051        4.3519247943
  C         4.3315728997       16.5896339956        2.2703456012
  C         4.7798851767       14.3065478214        1.4962244395
  H         4.5868272575       12.8196284124        3.0453579767
  C        -0.3111672420       14.3015099120       11.6345930489
  C         2.2257893934       14.3854550522       12.4645075867
  C         0.3081483351       11.8963961592       13.9022420840
  C         0.2076090637       10.5563566797       13.9556462107
  H         0.1884031593        9.3611361805        2.7862014759
  H        -1.5723666261        9.4569415101        2.5503061516
  C        -0.4805505669       10.5895959163        1.0992949473
  S         3.9930482821       18.5971908779        3.6821294496
  N         4.4982142360       17.9891170661        2.2790901073
  C         4.6891020855       15.7638177947        1.1631155813
  H         5.2708859126       13.7503241061        0.7445349418
  H        -0.1633545902       15.1271070877       11.0132794501
  H        -0.6652010424       14.7745203023       12.5989574863
  C        -1.4940734620       13.4269742485       11.1842063362
  H         2.3681988542       15.3844054117       12.0463197334
  H         1.8366897263       14.6636361016       13.4643608633
  C         3.5905098549       13.6119150970       12.5955502355
  H         0.0002112658       12.5266379126       14.6973190454
  C        -0.0542229871        9.8155472204       15.1843249955
  H         0.5014728374       10.1291998163        0.7300969334
  H        -0.4080508165       11.6208051957        1.2022054746
  C        -1.5457864394       10.2909084358        0.0332889050
  C         5.0375959941       16.3720389001       -0.0420567124
  H        -1.0745050569       12.9034836311       10.3218198615
  H        -1.7705853679       12.6790473026       11.8862983550
  C        -2.7950963312       14.1496408249       10.7110307442
  H         3.8340529254       13.4204646514       11.6616524774
  H         3.5670128966       12.7204056965       13.2270672746
  C         4.7486312304       14.4953794738       13.1213879967
  C        -0.1639269536        8.3826185646       15.2968214699
  C        -0.2222419621       10.5932924780       16.4167624623
  H        -1.9361707480        9.2396443096       -0.0471292460
  H        -2.4502534395       10.9068393879        0.3564645017
  C        -1.0802205197       10.7878742601       -1.3439520164
  H         4.8881302127       17.3907212180       -0.0732724347
  C         5.3684858946       15.8832598994       -1.3343196994
  H        -2.4531285833       15.0237018329       10.1544201125
  H        -3.4420291223       14.3077079499       11.5591370957
  C        -3.6623779756       13.1756458318        9.9254780760
  H         4.7752043470       15.3657110448       12.4720036838
  H         4.3891445146       14.8032581140       14.1033478823
  C         6.0572558844       13.8194714585       13.2384733331
  N         0.0872974659        7.4185702992       14.2400949980
  C        -0.3304862987        7.7527348366       16.4967177634
  C        -0.5508731191        9.8732795528       17.6082346703
  H        -0.1324604942       11.6039941711       16.4287566895
  H        -0.5399527710       10.1624618837       -2.0636851582
  H        -0.3498060996       11.5595216233       -1.0481434856
  H        -1.9069966218       11.3036277003       -1.8160782414
  S         5.6568591353       14.2673952602       -1.7723513389
  C         5.4197672161       16.8651230971       -2.4720123049
  H        -2.8612922727       12.7147328145        9.3558858130
  H        -4.1196705725       12.5513778052       10.6623754809
  C        -4.5239796998       13.7498417038        8.8534335010
  H         6.0777740836       13.2410747684       12.3390888301
  H         5.8707511885       12.9385825327       13.9140626142
  C         7.2505208359       14.6666724252       13.5969501457
  S         0.0298407399        5.8603587200       14.8862854593
  N        -0.1695783234        6.3659007256       16.4375283346
  C        -0.6507065666        8.3988505674       17.6776548307
  H        -0.5748203227       10.3951486323       18.5249218920
  C         6.0814712558       14.8239833767       -3.3726023018
  N         6.0069920321       16.1729330371       -3.5343081731
  O         5.2301785042       18.0933515206       -2.3912765787
  H        -4.3824682528       14.8674075894        8.8425496366
  H        -4.2662723049       13.2351362431        7.9176245144
  C        -5.9723973115       13.3800597846        8.9745661132
  H         8.1343527520       14.0613764296       13.8133069691
  H         7.5056882218       15.2454825506       12.6863357176
  C         7.0472215546       15.4817818985       14.8822453667
  C        -0.9301174768        7.6597330726       18.8100979436
  S         6.5728262885       13.8708151144       -4.7118467403
  C         6.0950137974       16.7880995559       -4.8727034799
  H        -6.4991267284       13.2734295657        7.9982967206
  H        -5.9914603703       12.4401084313        9.5110493859
  C        -6.8270160338       14.4993545264        9.6386637584
  H         7.8895667856       15.4077438287       15.5510816541
  H         6.1769325757       15.1932467202       15.4830119583
  C         6.8004657407       16.9488069780       14.4842547865
  H        -0.8628938903        6.6022551811       18.6990666988
  C        -1.3254057258        7.9413188120       20.0699265780
  H         6.8983064261       16.2832345034       -5.3620712025
  H         6.5348010540       17.7965070518       -4.9035623639
  C         4.7347073419       16.8622042328       -5.6134978659
  H        -7.0649018025       15.1123500965        8.8044770793
  H        -6.3797230610       15.1025788030       10.4350905195
  C        -8.1589554761       13.9536847632       10.1628791895
  H         7.3058878346       17.1765886907       13.5362784287
  H         5.7677268856       17.2431354595       14.4302938672
  C         7.3143220446       17.9677982131       15.5216059186
  S        -1.8677847283        9.4915085154       20.5936974222
  C        -1.5484907760        6.8115415882       21.0107844956
  H         4.4892473242       16.0127432281       -6.2385727042
  H         4.6168034981       17.7736215117       -6.1247718618
  H         3.9559153261       16.7951303832       -4.7816103662
  H        -8.6077906088       14.6191021035       11.0290679618
  H        -8.8003356394       14.0039971294        9.2923989013
  H        -8.1300633713       12.9372600287       10.4873408504
  H         7.8294026601       17.4193881895       16.3217078303
  H         8.0647120964       18.4444796592       14.9681271411
  H         6.4258059866       18.5093868569       15.7440675646
  C        -2.2011100932        8.7150658650       22.1200986035
  N        -2.0226810918        7.3754546313       22.1858956069
  O        -1.3934027291        5.6326492446       20.7470475357
  S        -2.8509308475        9.6364056591       23.5210053548
  C        -2.1992391450        6.4894180837       23.3999695536
  H        -2.3909753804        5.4585539326       23.2012342465
  H        -3.0994816065        6.8804667108       23.8683585131
  C        -0.9531997583        6.6727327246       24.2770957844
  H        -0.2012609609        5.8351952570       24.1548973547
  H        -1.2474452586        6.6435946571       25.2951552047
  H        -0.4294162340        7.6630402102       24.0241898800
