352
i =
  H        -2.5590482641       15.0759478183       14.6454729251
  C        -2.9167306473       14.5751014896       15.5364423039
  H        -3.8691206857       15.1090760613       15.7469317460
  C        -1.9245656834       14.6480865727       16.7441253332
  C        -3.3547959076       13.1823879718       15.2203107227
  C        -2.4665517822       14.0206938037       17.9969058872
  H        -1.0047360191       14.0453821317       16.3563641138
  H        -1.6316949769       15.6331800383       17.0078476680
  H        -3.5708110681       13.0092187908       14.1471232932
  H        -2.5606910430       12.5374058618       15.4549753656
  H        -4.2501125475       12.9807346894       15.8103226962
  C        -1.4352135568       14.0252862905       19.1271928920
  H        -2.5891355088       12.9040167278       17.8589864090
  H        -3.4017049535       14.5044957058       18.3014220706
  C        -2.1573230959       13.7248920411       20.4364910144
  H        -0.4986913394       13.4438884818       19.0938628568
  H        -1.1181507464       15.0244595584       19.3492829134
  C        -1.1812062379       13.2091379673       21.5335357593
  H        -2.9335169175       13.0736839978       20.3263357977
  H        -2.7937139758       14.5819926873       20.7960571136
  C        -0.1485150652       14.2167794813       21.9856355081
  H        -1.6011980889       12.7901637857       22.4756635405
  H        -0.8028190773       12.3966347597       20.9062461337
  C         1.0015708327       13.5493047852       22.8476141032
  H         0.3088679667       14.7783559935       21.1821837110
  H        -0.7033729796       14.8474141870       22.7661995226
  C         1.5141234879       12.1898486375       22.2244346328
  C         0.5670787684       12.8822223230       24.1020349665
  C         2.3157464310       14.3803533403       23.0211336794
  C         1.2377519357       11.0997849540       23.0908927345
  C         1.9777291849       11.7360184849       20.9993433078
  C         0.5631055717       11.4899407845       24.1996867530
  C        -0.0121450937       13.4546603122       25.2205553912
  H         2.5025168679       14.7672268818       22.0273477422
  H         1.9844793705       15.2244634915       23.5856013088
  C         3.4785864455       13.6997911313       23.6982767763
  S         1.7134709634        9.5996186452       22.5576809940
  C         2.2162955956       10.3438992330       21.0531847819
  H         2.0978492469       12.5208803033       20.2897032319
  C         0.0092376583       10.8648773350       25.2730770720
  H        -0.2527376101       14.4766318684       25.1322121369
  C        -0.4156537182       12.8670853884       26.3462621789
  H         3.8129032871       12.9019737842       23.0126559263
  H         3.1248807549       13.0844392566       24.5113982472
  C         4.6141008102       14.6977516448       24.1610154761
  C         2.4679341997        9.5792292939       19.8236613403
  C        -0.4476707273       11.5322581870       26.4345110825
  H         0.0463108645        9.7848783233       25.3024715895
  C        -0.9405140218       13.3089457456       27.5458360685
  H         5.0555492443       14.1822562638       25.0595489469
  H         4.2024114824       15.6564730461       24.4787032851
  C         5.7598606589       15.0091520176       23.1148054075
  C         2.3841647571        8.1696022249       19.5984040294
  C         2.9340532527       10.3646019063       18.6806800370
  C        -0.9373269744       10.8941592782       27.6521916874
  C        -1.2876720652       12.2203581457       28.3276985899
  S        -1.0705406653       14.8322548717       28.3247892544
  H         6.4280561745       15.4738211259       23.7774335378
  H         5.5204088745       15.7768468663       22.3914283015
  C         6.5102371701       13.7849246341       22.4860988062
  N         2.0641918342        7.2191527932       20.5361136192
  C         2.6470657598        7.5699435135       18.3453876292
  C         3.1686272795        9.7615033352       17.4037452372
  H         3.2200504002       11.3364070554       18.8705706054
  C         0.0718199462       10.1595244927       28.4649589513
  C        -2.2243451197       10.0825727860       27.3553741621
  C        -1.8503708483       12.6909043019       29.5284467883
  C        -1.7721138004       14.0535162095       29.7195765079
  H         7.5193522691       13.8593246696       22.6581760434
  H         6.3444870689       12.9122775047       23.0278333570
  C         6.0898283829       13.5865325126       21.0054464706
  S         1.8074728625        5.6914461771       19.8681495772
  N         2.3464430948        6.1873835290       18.3629423321
  C         3.0545838499        8.3227230412       17.1646042118
  H         3.4964131445       10.5828467583       16.7079085656
  H         0.3828509723        9.2729787377       27.8581827481
  H        -0.3728757791        9.8569202945       29.4607504211
  C         1.3149811323       10.9882207035       28.8119965578
  H        -2.0681242506        9.2367440597       26.6623362709
  H        -2.5495672091        9.6849219082       28.2763651364
  C        -3.4292505478       10.9246645161       26.8313324820
  H        -2.0397549462       12.0240702171       30.3596758249
  C        -1.9548606601       14.7377613903       31.0024636274
  H         5.6918019538       14.5825688012       20.6778844061
  H         5.2176068475       12.8783026817       20.9743522573
  C         7.3149620367       13.3078372382       20.0790314302
  C         3.2313784180        7.5812077237       15.9619833123
  H         1.9411927784       11.0170777297       27.9690542116
  H         1.0036862245       11.9717153514       29.1163817633
  C         2.1706278128       10.2028729570       29.9737770375
  H        -3.1133595881       11.4129702214       25.8596138829
  H        -3.6392931985       11.6941396898       27.5763024358
  C        -4.7333811952       10.0807475819       26.6161560040
  C        -1.8463810141       16.0928147904       31.2672604482
  C        -2.4042096180       13.9296870157       32.1901509916
  H         8.0201451944       14.0143802612       20.3596794023
  H         7.7619354241       12.3299560232       20.1704080724
  C         6.8150866124       13.5632943889       18.6047319320
  H         3.2352960950        6.4218958618       16.0967066109
  C         3.3708205435        8.0494073572       14.6852015155
  H         2.4612772991        9.2012304006       29.6076491876
  H         1.5268279332        9.9632392513       30.8003699747
  C         3.5105825521       10.8439226597       30.4377796369
  H        -4.6017224338        9.2832921667       25.8627103885
  H        -4.9373568653        9.6499712409       27.5865922843
  C        -5.9520919025       11.0094825932       26.3381958025
  N        -1.4941479252       17.0543480964       30.3251890013
  C        -2.1695773317       16.7323898749       32.4959243077
  C        -2.6075507435       14.5508367948       33.4113364710
  H        -2.4336361442       12.9127268772       32.2824593978
  H         7.6952502831       13.6183675345       18.0159338245
  H         6.1108698168       12.8830784636       18.2370056837
  H         6.4603362358       14.5556338709       18.4631860086
  S         3.5888443501        9.6668696019       14.2117090590
  C         3.5836257013        7.1162753353       13.5217246053
  H         3.5973279195       11.8080577424       29.8476005422
  H         3.4420917585       11.1252843882       31.5280715537
  C         4.7241609028        9.8984761918       30.1998929054
  H        -5.8371692980       11.4214253793       25.3828617131
  H        -5.9546261673       11.8734133534       27.0322118084
  C        -7.2458327264       10.1579687810       26.3631580304
  S        -1.5880136407       18.5815563083       30.9629471802
  N        -2.0191746601       18.0829137019       32.4304434631
  C        -2.5232216450       15.9697068895       33.6109283189
  H        -2.7345538818       13.8647458201       34.2464780306
  C         4.0665192415        9.1750937190       12.5413378291
  N         3.8774579238        7.8251776450       12.4027305891
  O         3.4819720205        5.8395247297       13.6464648716
  H         5.5206796256       10.5110648393       30.6114609542
  H         4.9244384925        9.8537556505       29.1116576594
  C         4.6641713833        8.5925675673       30.9477980380
  H        -6.8485106045        9.2048057460       26.1007845056
  H        -7.7640249614       10.0183939265       27.2697056611
  C        -8.2146936268       10.5369598905       25.2763366384
  C        -2.6372320666       16.5954049560       34.8683942892
  S         4.2868567007       10.1973496612       11.0994871587
  C         4.0745594965        7.1585163272       11.0704792401
  H         3.9480167041        8.7487984093       31.7251301162
  H         4.2469728932        7.9864783768       30.1625526180
  C         5.8901459990        7.7855673769       31.3099776717
  H        -7.9047656476       10.2653675565       24.3225447448
  H        -8.3659401633       11.5912565540       25.1965133225
  C        -9.5909771858        9.8713730250       25.3039453231
  H        -2.5893492607       17.7134510875       34.8513945194
  C        -3.1678596151       16.1256422917       36.0182663000
  H         4.7356776388        7.7039596156       10.3986138155
  H         4.6139328166        6.1781179902       11.1517256999
  C         2.7326803305        6.9997600624       10.3863893829
  H         5.8255756955        6.9469800100       32.0045492156
  H         6.5762410352        8.4307562503       31.8541080272
  C         6.3644709846        7.1883607913       29.9698588724
  H       -10.2865567826       10.2953458226       24.5048940650
  H        -9.6534031566        8.8362769039       25.0293295400
  C       -10.2289024117       10.0659633493       26.7522683917
  S        -3.5708965990       14.5092049368       36.4676857544
  C        -3.2873223755       17.1581605313       37.0984377677
  H         2.8942114329        6.5196671368        9.4251019193
  H         2.2836034152        6.3710242171       11.0985512126
  H         2.3017570819        7.8974665935       10.1255755256
  H         7.2981108365        6.6388861250       30.1491155461
  H         6.6133273429        8.0403811863       29.3497267361
  H         5.6302184789        6.6232439381       29.3548271635
  H        -9.7430574012        9.4273745777       27.4744297903
  H       -11.3209845914        9.9912702025       26.7141756183
  H       -10.2137086610       11.0847488804       27.0728414433
  C        -3.7173876905       15.1931132254       38.0975623101
  N        -3.7007453353       16.5692597755       38.2017119059
  O        -3.0597711604       18.3852423050       36.9313292351
  S        -4.5951483440       14.4227513400       39.4680187047
  C        -3.8378366989       17.2748799178       39.5095688526
  H        -4.2567116626       18.2815203250       39.3668369532
  H        -4.6902946692       16.9308640466       40.1208826016
  C        -2.6226212605       17.2554302044       40.3404424131
  H        -2.3809524481       18.3231768121       40.7071110049
  H        -2.8122433601       16.8121385264       41.3110118809
  H        -1.8093138014       16.8095227434       39.8155127103
  H         7.4728719742       11.5063484307        3.2879406774
  C         7.9189464591       10.5682069281        3.5253531535
  H         7.0405298435        9.8646502490        3.5928795921
  C         8.6456250377       10.5793587978        4.9523535437
  C         8.8352493799       10.2283745465        2.2725719342
  C         7.6384912216       10.7251787552        6.1348470551
  H         9.2951931996        9.6579886960        4.8090806701
  H         9.3437032905       11.4484312680        5.1080222803
  H         9.5479287992        9.4159397875        2.6728730523
  H         9.5437763767       10.9565821639        1.9973941107
  H         8.2829186701        9.8756664171        1.3894875064
  C         6.7243091439        9.5327173347        6.3324042286
  H         8.2539554120       10.8323222085        6.9708126564
  H         7.1101091295       11.6770846347        5.9161508608
  C         5.9325453938        9.5409155564        7.6231310742
  H         7.2409281761        8.5861097171        6.3232921553
  H         5.9838585811        9.3717173395        5.5368660107
  C         4.7602269515       10.5060618393        7.5513854605
  H         6.5066221557        9.8415080277        8.3756459487
  H         5.6944429815        8.5366887831        7.7455467223
  C         3.5609999764        9.9932146491        6.8171968412
  H         4.5628483281       10.9955419746        8.4479783751
  H         5.0636780530       11.4260847667        7.0636318729
  C         2.3152818102       10.8911465021        6.8597448460
  H         3.1838758578        9.1048046087        7.3289494481
  H         3.7115380741        9.8295946391        5.7851409726
  C         2.6101046574       12.2353934150        6.2391373997
  C         1.9619676646       11.5721446277        8.1532057082
  C         1.1555058434       10.2087216941        6.1690389723
  C         2.6293517799       13.3472591507        7.0876997698
  C         3.0550704011       12.6107570779        4.9665398731
  C         2.1400232529       12.8973090533        8.2571055683
  C         1.5589831062       10.9789462162        9.3132567672
  H         1.4256173925        9.8709574338        5.1219764751
  H         0.9400947354        9.2672819845        6.7627642963
  C        -0.1189839178       11.0206066821        6.0514117478
  S         3.0268669687       14.8305625319        6.2824508511
  C         3.3650751535       13.9399464840        4.9001942206
  H         3.1424502483       11.8085208000        4.1909962751
  C         1.8682141723       13.5361258226        9.4423559428
  H         1.4404572056        9.8917077443        9.2435051315
  C         1.2981911647       11.5347817462       10.4926516209
  H         0.0301101727       12.0887843703        6.1251716053
  H        -0.7545361048       10.8921153067        6.9171259032
  C        -0.9432830167       10.3435190214        4.9143626564
  C         3.9570707336       14.5355966891        3.7088139296
  C         1.3668273590       12.8776196221       10.6043632474
  H         1.9272560442       14.5603713937        9.4619289181
  C         0.9101838425       11.1299007761       11.7598039590
  H        -1.9146374918       10.7086928203        4.8863188273
  H        -0.9390544441        9.2606678590        5.0867953533
  C        -0.4116682079       10.8621301873        3.5771364485
  C         3.9161798269       15.9301291369        3.4254398287
  C         4.4902868928       13.6263160634        2.6309800891
  C         0.9668495819       13.5273201674       11.9153784906
  C         0.7373442125       12.1682767783       12.6044492041
  S         0.6376404367        9.6109468098       12.4615106799
  H         0.5050579798       11.2546360735        3.7753375125
  H        -1.0064412686       11.6907976562        3.3096147159
  C        -0.4398195583        9.8295905105        2.5215164736
  N         3.6282750397       16.9575860432        4.3593410812
  C         4.2894221229       16.4269102084        2.1785755448
  C         4.9767087335       14.1803762914        1.4137743239
  H         4.7500103980       12.6296203148        2.8786884568
  C        -0.2898265206       14.3461851153       11.7269492374
  C         2.1586560254       14.2838131936       12.5914410804
  C         0.5545391595       11.7565342060       13.9130598952
  C         0.4744078090       10.4101241470       14.0392180392
  H         0.4094102066        9.0262490468        2.5467804180
  H        -1.3921946987        9.2853978347        2.4608679986
  C        -0.3388761291       10.5513467370        1.1598357956
  S         3.4432565842       18.3558460537        3.4818409958
  N         3.8740158522       17.7665562364        2.0902391691
  C         4.7998560389       15.6393726268        1.1445071486
  H         5.6102802763       13.6470944583        0.8648630279
  H        -0.1812311481       15.1188341767       11.0671129988
  H        -0.4414524477       14.9823007426       12.6357309517
  C        -1.5393845116       13.5667457292       11.4277185632
  H         2.3350389266       15.1981849827       12.1043178676
  H         1.7740587309       14.7039494956       13.4845171034
  C         3.4085629149       13.4956409439       13.0566086755
  H         0.4030841742       12.5170848271       14.6859426607
  C         0.1492574310        9.6168535679       15.2544941929
  H         0.7068975376       10.4230403690        0.7093426338
  H        -0.5071367138       11.5719145770        1.2416605902
  C        -1.3581128447       10.2641645205        0.0368052250
  C         5.0462270537       16.2892903984       -0.1357274813
  H        -1.2744646428       12.7575250344       10.7408004214
  H        -1.8721337087       13.1745404438       12.3482003671
  C        -2.7360606239       14.3891123903       10.9189560606
  H         3.6982853585       12.8811300442       12.3238069993
  H         3.1004569351       12.9635324310       13.9880702666
  C         4.4817579877       14.4251189140       13.4396557488
  C         0.0454237926        8.2197453108       15.3953668208
  C         0.0041738190       10.3568433825       16.4832270702
  H        -1.4350759699        9.1682798505        0.0347148416
  H        -2.3800725983       10.4962362938        0.4315079816
  C        -1.2234538657       10.8858901625       -1.2211972041
  H         4.7875917271       17.3331948926       -0.0949810609
  C         5.4830892971       15.8750756045       -1.3421938333
  H        -2.3628862202       15.0216538277       10.1414459597
  H        -3.2395121773       14.8594576748       11.7434587888
  C        -3.7547036134       13.5056978138       10.3230743300
  H         4.7138357072       15.0124525847       12.5393541435
  H         4.0581890053       15.1848651130       14.1227751118
  C         5.7687352459       13.7243857260       13.8194881050
  N         0.3897292217        7.3341728193       14.3670082007
  C        -0.3525195910        7.5939919854       16.5854639168
  C        -0.4873615271        9.7929573766       17.6534334363
  H         0.2999340869       11.4232172442       16.5352533195
  H        -1.6318874728       10.2948342879       -1.9912223943
  H        -0.2258256524       11.1351312603       -1.5169552395
  H        -1.8355244412       11.7324579699       -1.1737917349
  S         5.9887972975       14.2277549476       -1.7469799788
  C         5.5159797201       16.7868814789       -2.5109587007
  H        -3.3479876192       12.6278964622        9.7793264386
  H        -4.3908492995       13.2647809036       11.1604968882
  C        -4.5664314436       14.0986949551        9.1261186773
  H         5.7777637361       12.7447479822       13.3575084680
  H         5.7301736386       13.3681678548       14.9183391335
  C         7.0286896063       14.4733017700       13.5428997725
  S         0.1424046472        5.8182236755       14.9309259076
  N        -0.3785830649        6.2407350204       16.4701320412
  C        -0.6448373699        8.3220656423       17.7214390969
  H        -0.4610277949       10.4167851594       18.5308939514
  C         6.0742873226       14.8187144643       -3.3746316752
  N         6.0289372665       16.1551935448       -3.5812972639
  O         5.0935824165       17.9684040910       -2.5249926343
  H        -4.7326330056       15.1972856160        9.1621726781
  H        -3.9814457890       13.9620971743        8.2257466619
  C        -5.9477175417       13.4456486182        9.0920465766
  H         7.8579024398       13.8198006643       13.4396880823
  H         7.0842652712       14.9184342972       12.5767643177
  C         7.3562483284       15.4406732470       14.6431410213
  C        -0.9852045999        7.6323959300       18.8834574477
  S         6.5521688662       13.7853458058       -4.6920761556
  C         6.1204416194       16.7084477969       -4.8928518262
  H        -6.1143259663       13.3740010294        7.9995654724
  H        -6.0016010007       12.4973932982        9.6211419204
  C        -7.1199297638       14.2900495847        9.5044424407
  H         8.4209886701       15.5162972859       14.7927518498
  H         6.9961890404       15.3563238646       15.6723461463
  C         6.8896736665       16.8662017662       14.2217796070
  H        -0.6877494512        6.6184444552       18.9117943462
  C        -1.4411989830        8.0354264659       20.1071482515
  H         7.0041837121       16.4004862703       -5.3640682432
  H         6.3485360432       17.7735560871       -4.8154552099
  C         4.9459212016       16.6887151495       -5.7704674491
  H        -7.6351948117       14.3689549998        8.5588380874
  H        -6.8030531764       15.2825172090        9.8973494897
  C        -8.1249260603       13.5452641556       10.4431251182
  H         7.5306819766       17.1513105135       13.3958330691
  H         5.8813898629       16.8161157344       13.9103596279
  C         6.9758214701       17.9309160363       15.3697303904
  S        -1.8507294120        9.6413161828       20.7121292559
  C        -1.7728001353        6.9707025956       21.1117436627
  H         5.1541638557       16.1922634481       -6.6823781176
  H         4.7389086045       17.6857422232       -5.9221695576
  H         4.0737585253       16.1110311234       -5.3464852304
  H        -7.9597961314       13.9319513179       11.5529748739
  H        -9.1595249337       13.8095441372       10.1872203605
  H        -8.0249283193       12.5033204107       10.3871585794
  H         6.7394818037       17.4162893079       16.2777202795
  H         7.9704241533       18.1766388861       15.2861764740
  H         6.2202658227       18.5696512393       15.0434303868
  C        -2.3033996416        8.9068189825       22.2570694241
  N        -2.2783276368        7.5238996324       22.2379889178
  O        -1.5528250303        5.8046588280       20.9033904149
  S        -2.9358552779        9.8105293833       23.6811607276
  C        -2.5347521217        6.6918099637       23.3844571020
  H        -3.0073600184        5.8255158379       23.0328941162
  H        -3.2471622711        7.0309910276       24.1292039100
  C        -1.1590897048        6.3830391275       24.0194079130
  H        -0.6338389856        5.5025343060       23.6007042336
  H        -1.4654946667        6.0466969932       24.9489696612
  H        -0.4390051755        7.2329356771       24.2044709474
