352
i =
  H        -3.6436905572       14.4924641279       15.8801090397
  C        -3.5143516698       13.4494874352       16.1891947254
  H        -4.5398809324       13.1677202132       16.5511866368
  C        -2.4558862911       13.3508101359       17.2759614754
  C        -3.1655917704       12.5379752143       15.0474607609
  C        -2.8783918761       13.8643383380       18.5976184174
  H        -2.1051257409       12.3748122963       17.4097771883
  H        -1.5552046930       13.9631469911       16.9715645698
  H        -2.6214064430       12.9666691306       14.2499094693
  H        -2.4426946754       11.8672814449       15.3434057943
  H        -4.0657461147       11.9959748121       14.7004859878
  C        -2.1728860185       13.1457408054       19.7335855062
  H        -3.9459530053       13.7438615036       18.8860978027
  H        -2.5505082472       14.9356394565       18.6122686781
  C        -2.5867456464       13.6201525611       21.1345368297
  H        -2.1833060893       12.0905675441       19.6354706553
  H        -1.0916581841       13.5043875552       19.7391870185
  C        -1.6595219419       12.9816403678       22.1931520238
  H        -3.6140765695       13.3381917476       21.3379314228
  H        -2.5572020309       14.7024814083       21.1557984186
  C        -0.3540802665       13.8194014864       22.3973818471
  H        -2.2323686766       12.9167974716       23.1377255969
  H        -1.3713839582       11.9648041826       21.8553542343
  C         0.7862063327       13.0481855853       23.2128562312
  H         0.1285336046       14.0687897833       21.4355424545
  H        -0.5294272333       14.7531856944       22.9560858017
  C         1.1685800715       11.6951001394       22.4900534118
  C         0.2992730741       12.2984304468       24.4218675777
  C         2.0978945111       13.8832507353       23.4236976191
  C         0.8778639061       10.5981491285       23.2506672820
  C         1.7432486537       11.3756372276       21.2755221495
  C         0.4319526831       10.9880936972       24.5115056009
  C        -0.0525960038       12.9455241951       25.6231801144
  H         2.3627247680       14.2780244162       22.4397387176
  H         1.7589523736       14.6743643077       24.0452418285
  C         3.3183607462       13.0428429508       23.9621435373
  S         1.0891501347        9.0936480967       22.4677057999
  C         1.7656174553        9.9469445123       21.1502145445
  H         2.0594991433       12.2244690473       20.6926805403
  C         0.1141035448       10.3974571025       25.7132800139
  H        -0.3166922331       13.9794072080       25.5702568619
  C        -0.1560588884       12.4077592190       26.8335266184
  H         3.6058096619       12.1977505958       23.3669580861
  H         2.9790795246       12.5096981541       24.8691276192
  C         4.5313222354       13.8486506666       24.3953148777
  C         2.1329322621        9.1863428014       19.8791228205
  C        -0.1685784316       11.0482668360       26.8990330898
  H         0.1514734713        9.3322029963       25.7515610453
  C        -0.5429204384       12.7418332717       28.1100214384
  H         5.0729145116       13.2817758271       25.2029111287
  H         4.1002475074       14.6654196941       25.0110676678
  C         5.3397264551       14.2602835815       23.1637740655
  C         2.2093922170        7.8059027811       19.6821861073
  C         2.4694553328       10.0592651404       18.7685724467
  C        -0.5756301191       10.2606042667       28.1648096358
  C        -0.8823668256       11.6495864352       28.9112411701
  S        -0.9334431381       14.2263606904       28.8297781249
  H         6.1569530619       14.8477310001       23.5689971314
  H         4.7203147600       14.9582119904       22.5868548419
  C         5.8131931172       13.2307956642       22.1929862019
  N         2.0017758809        6.8374818054       20.6901254184
  C         2.4770132743        7.2519107060       18.4355791831
  C         2.6931790230        9.5701399337       17.5005396207
  H         2.4199774062       11.0791631783       18.8306605176
  C         0.6108590399        9.5425164203       28.9755646541
  C        -1.8179297437        9.3637584122       28.1388829941
  C        -1.3294736021       12.0281403408       30.2055519013
  C        -1.3076875619       13.3987238928       30.3386439484
  H         6.9791644535       13.3094872856       22.1374165432
  H         5.6595498065       12.3301777394       22.6380954400
  C         5.2373178884       13.4577043828       20.8073469494
  S         1.9799510202        5.3969034887       20.0197709190
  N         2.3711975963        5.8292120185       18.4678649553
  C         2.7259691012        8.0425425678       17.2599862315
  H         2.9600076819       10.3116200512       16.7417838456
  H         0.8977004762        8.5752660377       28.4663182774
  H         0.1195334805        9.1669013310       29.9076963504
  C         1.8267718360       10.2718673804       29.4555819236
  H        -1.6597671432        8.4760860067       27.5009693831
  H        -2.0932420962        9.0139560815       29.0995226594
  C        -3.1130177816       10.1981697915       27.5878633132
  H        -1.3425459711       11.2697152025       31.0287933046
  C        -1.5906974855       14.2147790805       31.5862011493
  H         5.4033952168       14.5436752944       20.5022093701
  H         4.1639919863       13.3654809798       20.7358058173
  C         5.9488071741       12.5901293293       19.8084493527
  C         3.1180074667        7.4464459368       16.0126200776
  H         2.2271149357       10.7298767530       28.5323022394
  H         1.6257680987       11.0433876177       30.2290159491
  C         2.7783423126        9.3091056766       30.0165188147
  H        -2.8111340599       10.7901282926       26.6951727842
  H        -3.5050289381       11.0575275121       28.2659897658
  C        -4.3491040332        9.3512907183       27.3180441711
  C        -1.5133693099       15.6688877389       31.7910015216
  C        -1.6495567208       13.5024969477       32.9145694892
  H         6.9204747873       12.2024929884       20.1079821421
  H         5.4117336670       11.6749812768       19.7058397793
  C         6.1667708855       13.2353658256       18.4720221905
  H         3.1101760506        6.3960730051       16.1058930259
  C         3.3712881654        7.9569132685       14.7581220447
  H         3.1214507475        8.7599304419       29.2635874550
  H         2.2301105453        8.5930576086       30.6160328263
  C         3.9749149497        9.9866180030       30.7162359031
  H        -3.9781446828        8.7062333083       26.5113144996
  H        -4.5721808471        8.8291330600       28.1970633055
  C        -5.4436941343       10.2438918152       26.6431681105
  N        -1.2987987573       16.5723536912       30.7500852888
  C        -1.8537881161       16.3310391819       32.9749956971
  C        -1.9420494029       14.1198784099       34.1186628117
  H        -1.5223169605       12.4584572849       32.9489494566
  H         5.2564567329       13.5766264313       17.9690515564
  H         6.6977703128       14.0859459355       18.7207205859
  H         6.7698254239       12.6221335764       17.8352327525
  S         3.7191176621        9.5523511869       14.3527852312
  C         3.3814534797        6.9760113266       13.5352027131
  H         3.9669901160       11.0539314891       30.4122215355
  H         3.7943305742        9.9299585350       31.7463289007
  C         5.3679008052        9.5381813010       30.3659276079
  H        -4.9484900922       10.7051662060       25.8504619438
  H        -5.8671473917       10.9827265824       27.2772418890
  C        -6.5046167318        9.3694589432       25.9211767530
  S        -1.2443885695       18.0567309356       31.3863931684
  N        -1.7822397432       17.7202482932       32.8875451575
  C        -2.1057962433       15.5864822712       34.1485380165
  H        -1.9856358257       13.5069782926       35.0138513769
  C         3.9550044742        8.9604135452       12.6427124213
  N         3.8392173600        7.6190870385       12.4479300279
  O         3.1375770906        5.7913306253       13.6554593101
  H         5.9570039390       10.4078067219       30.5323277507
  H         5.3074697344        9.2568657992       29.2940967852
  C         5.8315764461        8.4076899712       31.2631155089
  H        -6.0045295392        8.6745330339       25.2005403716
  H        -7.1539534956        8.8952630954       26.6603660221
  C        -7.4387896258       10.2600162909       25.0127504363
  C        -2.4405677544       16.3090011311       35.3087584814
  S         4.4267746392        9.9799139640       11.3102444749
  C         3.8983294164        6.8464890313       11.1671361188
  H         6.4671818679        8.8466984924       32.1217911237
  H         5.0207288976        7.9066409600       31.8260548202
  C         6.6969168037        7.5128897556       30.3539423007
  H        -6.9839745291       10.6965554578       24.1520600552
  H        -7.7999734468       11.0955013310       25.6336434575
  C        -8.7821665147        9.6517117690       24.6248316053
  H        -2.5392173705       17.3679502422       35.1909475010
  C        -2.8864887109       15.9821258472       36.5667754017
  H         4.6714465999        7.3097176554       10.5616175935
  H         4.1941784321        5.8681929160       11.2687344422
  C         2.5552307224        6.8062402386       10.4465777338
  H         7.2275037347        6.7777662083       30.9082767568
  H         7.4363311732        8.1449555969       29.8590196378
  C         5.9937109222        6.7443195631       29.2831892661
  H        -9.0359203297       10.3416936599       23.8873218789
  H        -8.6222558244        8.6490772804       24.2750226833
  C        -9.8507753551        9.7393332818       25.7757907568
  S        -3.1548129728       14.4649934392       37.1978513336
  C        -3.0675302740       17.1288286132       37.5786571671
  H         2.4996771709        7.2711933134        9.4535851061
  H         2.2568974167        5.7382318009       10.3379851400
  H         1.8218415957        7.3179063523       11.1228152669
  H         6.7239627621        6.2151242472       28.6336310285
  H         5.3010091598        7.3150564830       28.7197063600
  H         5.4213688917        5.9847480565       29.7278139491
  H       -10.1256430231       10.7715671242       25.8835035942
  H        -9.3609457427        9.3535238079       26.6590485680
  H       -10.7565181390        9.2132165585       25.5287669761
  C        -3.4713479084       15.2544285312       38.7570949296
  N        -3.3546500690       16.6067979634       38.7689885865
  O        -2.7852729795       18.3349463393       37.4174829374
  S        -3.8589257405       14.5216082199       40.3270760564
  C        -3.5219490250       17.4312551260       40.0309490057
  H        -3.5772576068       18.4522195635       39.7061850184
  H        -4.4378690506       17.2493962772       40.5582633918
  C        -2.2301840627       17.2190106366       40.8916244515
  H        -1.2723621547       17.2350619283       40.3267046672
  H        -2.1777829626       18.0990220417       41.5782357006
  H        -2.4049520102       16.3309512986       41.4021076146
  H         7.8208338222       11.7449155339        3.6946274858
  C         8.3401749669       10.8000842190        3.7617726672
  H         7.6212557162       10.0367736780        3.6300904426
  C         8.9547211290       10.7513047064        5.1183627139
  C         9.3644300374       10.6373881691        2.6601687335
  C         8.0222481610       11.1306526876        6.1933036120
  H         9.2281679371        9.7136848812        5.1912676463
  H         9.8165432197       11.4040986571        5.2121392483
  H        10.0447034768       11.5133216777        2.5667808401
  H         8.8802685106       10.6493330775        1.6842328962
  H         9.9078937376        9.7233325333        2.6865719001
  C         7.2861523009        9.8503108926        6.7747647524
  H         8.5973868060       11.7434570896        6.9502502152
  H         7.2641452515       11.8945416779        5.8598231727
  C         6.4271438790       10.1726004481        8.0244676750
  H         8.1520253999        9.1243185398        6.9840255583
  H         6.5806372151        9.3547035180        6.0472210769
  C         5.1414360126       10.9785057445        7.6851661287
  H         6.9082127675       10.7628464499        8.8048569019
  H         6.1747389736        9.2727635430        8.5781165697
  C         3.8878117838       10.1301506903        7.3173409689
  H         4.8740448722       11.6315869718        8.4930019517
  H         5.3534399882       11.7195861876        6.9076508859
  C         2.5333747776       10.9205607630        7.1110781488
  H         3.8045162217        9.5030810755        8.2299945104
  H         4.0320572668        9.4099739005        6.4751629621
  C         2.8813814626       12.2332156283        6.4049955619
  C         2.0921697137       11.5678429937        8.3274983043
  C         1.5020305128       10.0663661727        6.4379135896
  C         2.6757861833       13.3463801667        7.1986611013
  C         3.4108682482       12.6315195572        5.1471215976
  C         2.1183071246       12.9255924894        8.4440738508
  C         1.5899868921       10.8799250471        9.3923709230
  H         1.8863634878        9.7590251083        5.4999321390
  H         1.2434288857        9.1995098013        7.0844033625
  C         0.1488293320       10.7346680140        6.0798009915
  S         3.1170237905       14.8115207584        6.4735140184
  C         3.5185810512       13.9606820864        4.9904357994
  H         3.5314167089       11.8439354891        4.4308311198
  C         1.6967993926       13.4445043526        9.6301559965
  H         1.5530724075        9.8534900908        9.2308898839
  C         1.1178234446       11.4583174949       10.5720279568
  H         0.3391048106       11.8686533466        5.8606181635
  H        -0.4648132681       10.7021280858        7.0067224528
  C        -0.7370577128       10.0749098193        5.0716482285
  C         3.9526275641       14.5887000109        3.7509926092
  C         1.1310187331       12.8257665506       10.7251774535
  H         1.9203665727       14.5028117991        9.7335522511
  C         0.7563037845       11.0122738736       11.8353728961
  H        -1.7686942658       10.4559669602        5.1704364063
  H        -0.8537547287        9.0142800484        5.3696486607
  C        -0.2665018585       10.3352801749        3.5849314583
  C         4.1255442554       15.9472458237        3.4461137015
  C         4.2407109649       13.7223108566        2.5926612243
  C         0.7813082525       13.4612508156       11.9826998154
  C         0.5576645650       12.1096201535       12.6972922097
  S         0.6297097474        9.4422378005       12.5117791953
  H         0.4983112600       11.1196225988        3.5387722763
  H        -1.1079928910       10.7532468006        3.0680878593
  C         0.2783197343        9.1123843944        2.7565590490
  N         3.8145476334       16.9866483194        4.3471106433
  C         4.6088331470       16.4290566314        2.2356676787
  C         4.7495936210       14.2036908289        1.3790231942
  H         4.2075267064       12.6379891696        2.5780849008
  C        -0.5119974635       14.2146405821       11.8988855828
  C         1.9207426102       14.2003733771       12.7515955873
  C         0.2231679674       11.6644630229       13.9707191945
  C         0.3279293686       10.2969805175       14.0367981868
  H         1.1615809577        8.7392733426        3.2779967799
  H        -0.5457683225        8.3203306803        2.7146489507
  C         0.6915707893        9.4980543453        1.3428155388
  S         4.0302545895       18.4375652264        3.5757381587
  N         4.6027392287       17.8665854827        2.1678672937
  C         4.9280748214       15.6571866328        1.1319164494
  H         5.0329074770       13.5428286262        0.5611163807
  H        -0.3227962451       15.0667741511       11.2979989788
  H        -0.7842665486       14.5776197076       12.9167120395
  C        -1.6006571399       13.3118333049       11.3662311566
  H         2.0653981671       15.1619819621       12.3361199906
  H         1.4792199276       14.5711265238       13.7000346597
  C         3.2207225023       13.5000217616       13.1305014848
  H         0.0270221388       12.4092230643       14.7402764627
  C        -0.0668541876        9.5761599935       15.2427974546
  H         1.5047902072        8.8346289003        1.0732401963
  H         1.0973717935       10.5502483117        1.4203661707
  C        -0.5254650508        9.4934990890        0.3700565160
  C         5.1528360904       16.3229088178       -0.1541084137
  H        -1.2688930922       12.7885737882       10.4325600903
  H        -1.9205775175       12.4933564755       12.0579467246
  C        -2.7390822889       14.2247723144       10.8865553960
  H         3.5586874880       12.8197542782       12.3315627117
  H         3.0500070720       12.9585735114       13.9861708537
  C         4.3398505385       14.3575529105       13.7516764871
  C        -0.1340011449        8.1801220450       15.4235324048
  C        -0.3271548042       10.3778866453       16.5324335351
  H        -0.9173758845        8.4078185014        0.5829310780
  H        -1.3446034701       10.1776223534        0.6766673459
  C        -0.2647478671        9.8827132550       -1.0837535416
  H         5.0284429865       17.3994805210       -0.1276413398
  C         5.2832624465       15.8503642652       -1.4252486951
  H        -2.5734417573       14.4253460671        9.8187751555
  H        -2.5929455657       15.2032315775       11.3513593532
  C        -4.0925295783       13.6185321954       11.2132367891
  H         4.7188286607       15.1276622329       13.0289828837
  H         3.8282031596       14.9210508755       14.5571730319
  C         5.3927986807       13.5841134216       14.4528321668
  N         0.2181060658        7.1551599996       14.4653851715
  C        -0.4348408789        7.5877985125       16.6375571285
  C        -0.5506221945        9.7366705884       17.7519926901
  H        -0.2189597111       11.4232138725       16.5773897478
  H         0.5280451128        9.2579418272       -1.5563549188
  H        -0.0288988070       10.9643957722       -1.1926981742
  H        -1.1517895849        9.7897135131       -1.6854254294
  S         5.5653407113       14.2299399056       -1.9223896233
  C         5.3121482716       16.8409192831       -2.5814892408
  H        -3.9360127702       12.5330444240       11.0963850234
  H        -4.4092015481       13.6417617383       12.3125384524
  C        -5.1279795551       14.1807200963       10.2025349731
  H         5.9289178620       13.0310144022       13.7077971335
  H         4.9111822120       12.8973881193       15.1547411593
  C         6.4946251967       14.4147621904       15.2522780667
  S        -0.0301452064        5.6733422852       15.1120525821
  N        -0.4108207130        6.1776431233       16.6175894054
  C        -0.7021770501        8.2797036504       17.8960966702
  H        -0.6286077460       10.3316223766       18.6494829432
  C         5.7424198031       14.8660714992       -3.5547545031
  N         5.7339210407       16.2097609539       -3.7283472511
  O         5.1653127506       18.0572184324       -2.4888045169
  H        -5.7183158238       14.8750439267       10.8058519053
  H        -4.6983965599       14.6967488785        9.3006736440
  C        -5.9975962571       13.0456339651        9.7433745808
  H         6.2002507813       14.9874314114       16.1337471977
  H         7.1638716219       13.6036225764       15.5687972516
  C         7.4462391734       15.1930911655       14.3339519012
  C        -0.9161311343        7.5046352619       19.1019994890
  S         6.4532728967       13.9352429451       -4.8004942217
  C         6.0492988154       16.8625745391       -4.9997299234
  H        -5.3900803548       12.2368575921        9.2668903787
  H        -6.4573684698       12.6808234945       10.6167209761
  C        -7.1444355773       13.5956726446        8.7820753068
  H         7.1229937664       15.1910555831       13.2778872567
  H         8.3989744440       14.7021125584       14.2206115436
  C         7.7437351495       16.6472342662       14.6917612441
  H        -0.3398287300        6.5913343286       19.1979090743
  C        -1.6069265946        7.7920182807       20.2862002068
  H         6.9271331954       16.4564574894       -5.5076878491
  H         6.2995447907       17.8952883739       -4.6945577955
  C         4.8493207220       16.8805502063       -6.0037483691
  H        -7.3221971231       12.9954086648        7.9293390265
  H        -6.7512646183       14.5279314204        8.3225298892
  C        -8.3391550327       13.8951646825        9.6097152954
  H         7.6551196544       16.8431284452       15.7112294533
  H         8.7783059363       16.8759344311       14.6237722044
  C         6.8986724189       17.6484440358       14.0875905527
  S        -2.2381165816        9.3613419887       20.6258638995
  C        -1.7161364765        6.7716965573       21.3968140274
  H         4.9943538330       17.7293431940       -6.5913312088
  H         3.9329667815       16.8465263095       -5.4286679435
  H         4.9210470089       16.0137042702       -6.6455419084
  H        -8.3681976668       14.8014782405       10.2139684783
  H        -9.1602262136       14.0345422492        8.9364898544
  H        -8.4714183921       13.0510058128       10.3287521528
  H         6.0061224670       17.6654467992       14.7335573682
  H         7.3130144411       18.6389311074       14.1746922727
  H         6.7452032442       17.4910850364       13.0131454945
  C        -2.7046320671        8.6448356528       22.2472083333
  N        -2.3331140737        7.3759335108       22.4481074356
  O        -1.2123046609        5.6529803450       21.3879132627
  S        -3.6976378569        9.5396058403       23.4559079897
  C        -2.5871611702        6.6038736210       23.6362727534
  H        -2.7284813242        5.4938165154       23.5836461354
  H        -3.5723508588        6.8342440976       24.1161499584
  C        -1.4573899258        6.8263172511       24.7333494652
  H        -1.7525858285        7.4749387195       25.5120553311
  H        -0.5075506288        7.1415708599       24.3901650799
  H        -1.3389313834        5.8382632184       25.1048906104
