352
i =
  H        -3.1225317680       15.6615254731       15.8065152988
  C        -3.0634237466       14.6725431183       16.2001559704
  H        -3.9837344074       14.3526808743       16.5700444343
  C        -1.9205191321       14.4125987652       17.1978681070
  C        -2.9587557664       13.7606138623       14.9197899862
  C        -2.4613365414       14.0985661063       18.6187717958
  H        -1.3574911376       13.5809718354       16.7980854632
  H        -1.2413589097       15.3550196297       17.0769156796
  H        -3.5219558787       14.2472800243       14.1529263993
  H        -1.9599486120       13.8294123465       14.4126643424
  H        -3.2880226210       12.7159066882       14.9598907590
  C        -1.4837338195       14.0310580447       19.8087219302
  H        -3.0141666580       13.1625068645       18.5280931420
  H        -3.3959388730       14.7617311987       18.8761418707
  C        -2.1645106570       13.8544196062       21.1807046198
  H        -0.7432456643       13.2895191416       19.5894749805
  H        -0.9399560625       15.0119686181       19.8671226486
  C        -1.2941925401       13.1876209433       22.2643932818
  H        -3.0846353146       13.2928543824       21.0844974382
  H        -2.4342626274       14.7627455651       21.5632207330
  C        -0.1021168538       14.0821686550       22.7279592029
  H        -1.9581992006       13.1485010464       23.1077793480
  H        -1.0474240962       12.1691328016       22.0538491868
  C         0.9829834661       13.1629509124       23.3872181439
  H         0.4562305291       14.6286642873       21.9162229896
  H        -0.3051550189       14.9395092030       23.3755671018
  C         1.2675491604       11.8023745451       22.6861966110
  C         0.6308205842       12.5079084251       24.6463274070
  C         2.2422556797       14.0525288295       23.5307481205
  C         1.1767074067       10.7099655983       23.5625170516
  C         1.7556630283       11.3240467926       21.4591567361
  C         0.6623559431       11.1552881994       24.7728539477
  C         0.2085380534       13.1640084309       25.7957692928
  H         2.3998604394       14.4267843819       22.5227627062
  H         2.0967822873       14.8437836778       24.2219224129
  C         3.5100661546       13.2979136361       24.0804115912
  S         1.6120412360        9.1680656191       22.9186120586
  C         1.9339412678        9.9627461293       21.4679264393
  H         1.9313411823       12.0807600951       20.6870930820
  C         0.2374129557       10.4905285657       25.8756345307
  H         0.0691929595       14.2445288120       25.8662293931
  C        -0.0953757899       12.5186630547       26.9635326277
  H         3.6336788316       12.3617566797       23.6061305604
  H         3.3354927214       13.2215529130       25.1622101666
  C         4.8705145573       13.9573362950       23.9286782483
  C         2.4328127905        9.2345235118       20.2564938815
  C        -0.1891096374       11.1890165459       27.0870512012
  H         0.2986476865        9.3526079019       25.9458884854
  C        -0.4647609310       13.0296327586       28.2309574881
  H         5.5507781486       13.3265098882       24.5837863738
  H         4.7899391510       14.9161619435       24.3712857888
  C         5.3899627719       14.2583409518       22.5480644482
  C         2.2784887682        7.8933093225       19.8710934410
  C         2.8767418957       10.1433918419       19.1837625700
  C        -0.6169139049       10.5855543631       28.4082092971
  C        -0.7514098978       11.9467256522       29.0862796251
  S        -0.8469847786       14.5460389832       28.8141799374
  H         6.4574593933       14.6730092878       22.5715545974
  H         4.7564586666       14.9392005990       22.1284617962
  C         5.3982022764       12.9222414215       21.6796903571
  N         1.7716889130        6.9308487986       20.7736126357
  C         2.5481383511        7.3441550470       18.6701987281
  C         3.1339386254        9.6700683810       17.8664709585
  H         3.0788966018       11.1405508635       19.4277984534
  C         0.4073608204        9.6828370419       29.0589931832
  C        -1.9557431832        9.8363959064       28.0729643287
  C        -1.1456104826       12.4492661827       30.3462265294
  C        -1.2534378022       13.8272324610       30.3580453930
  H         6.0640154331       12.1388860472       22.1369082910
  H         4.5161288168       12.3074060593       21.7315140616
  C         5.8222279752       13.1100255681       20.2254444568
  S         1.6257637693        5.5494367659       19.9548194166
  N         2.3248652038        5.9611706089       18.5839947454
  C         3.0018710147        8.2147154874       17.5676312239
  H         3.3612194319       10.3919461091       17.0710283861
  H         0.7514193084        9.0321511916       28.2668375318
  H        -0.0877847585        9.0189999176       29.7769454375
  C         1.5851896525       10.4397898602       29.5880671628
  H        -1.6112973419        9.0496455059       27.4374728848
  H        -2.3015594428        9.3130295676       28.9591397095
  C        -3.1173206033       10.6445451697       27.5566976107
  H        -1.4808317444       11.8234085819       31.1016077179
  C        -1.4844182217       14.6571180754       31.6043376519
  H         5.6677189795       14.2450493152       19.9479406061
  H         5.1586839435       12.5149262597       19.5766137812
  C         7.2834840707       12.7974489718       19.8302392261
  C         3.3475540115        7.6014858773       16.3099227238
  H         1.7797715277       11.2402527023       28.9343935205
  H         1.4527945039       10.8388050354       30.5731828518
  C         2.8155334552        9.5984151042       29.7415582619
  H        -2.8264333562       11.4903802842       26.9802723068
  H        -3.6076015425       11.0891197299       28.4749397216
  C        -4.2014481971        9.6898841538       26.9873427120
  C        -1.5977283417       16.0045355964       31.7386460063
  C        -1.7631651693       13.9652012100       32.8564806946
  H         8.0998962042       13.4788249909       20.2855367094
  H         7.5430238603       11.7379960384       20.0788947300
  C         7.4093766636       13.0458264989       18.2557467133
  H         3.0173861199        6.6778746632       16.2858658808
  C         3.6605608478        8.0084877290       15.0515496636
  H         3.2539408547        9.3382258514       28.8332172527
  H         2.5015582494        8.6818110960       30.2948872128
  C         3.8297456014       10.2903756949       30.6322919386
  H        -3.9483290903        9.3734140018       25.9870098356
  H        -4.2799725406        8.6950734073       27.5077697587
  C        -5.4670394539       10.5513882358       26.7437683921
  N        -1.2672068732       16.8641424212       30.7600791712
  C        -1.9135585222       16.6627902857       32.9283898860
  C        -2.0963231212       14.5189698046       34.1001386891
  H        -1.7893526621       12.8358942958       32.8532556371
  H         6.5341813443       12.6442946150       17.8223341644
  H         7.4666567558       14.0568995342       17.8722601013
  H         8.2325727729       12.5033693241       17.7350273242
  S         3.8477347777        9.6838293484       14.5565751414
  C         3.7458246647        7.0769265017       13.9232416739
  H         3.5975366446       11.3260548621       30.3830815002
  H         3.4975090723        9.9887038611       31.6325442161
  C         5.2632572531        9.7801366216       30.3357254808
  H        -5.3038857733       11.4200213408       26.1232706614
  H        -5.7292599911       10.9947331659       27.6928181371
  C        -6.5384037426        9.7225146262       26.1601538352
  S        -1.5087613587       18.3747142849       31.3402757780
  N        -1.8256279854       18.0359103572       32.8699427287
  C        -2.2090519298       15.9953196853       34.1375564931
  H        -2.2188893206       13.8288097418       34.9595315135
  C         4.1368635062        9.1165059335       12.9637275359
  N         4.1614288907        7.7423524639       12.8601653111
  O         3.7844108758        5.8416240817       14.0697344563
  H         5.9481199007       10.3083367395       30.9397216018
  H         5.6644998808       10.2193021334       29.5038885128
  C         5.5735307835        8.3365190008       30.5941353692
  H        -6.2024721689        8.9863346633       25.4923667033
  H        -7.1786688775        9.3135168789       26.9319725383
  C        -7.3229219530       10.5214314373       25.1093106506
  C        -2.6259376644       16.7592327657       35.2892696597
  S         4.6946003008       10.0651621641       11.5848442069
  C         4.2913289503        7.1354971689       11.5491054367
  H         5.9185943423        8.2296330166       31.6255422986
  H         4.6453971717        7.7527836289       30.5412916798
  C         6.5935170423        7.7263416291       29.5558424329
  H        -6.7303100972       10.4319226565       24.2198800158
  H        -7.4955116407       11.5571566238       25.3959383416
  C        -8.5346725761        9.8660901049       24.6362107123
  H        -2.4605312781       17.8321535835       35.3713626842
  C        -3.1246100567       16.3410500274       36.5226021278
  H         4.9730880289        7.5771329037       10.8386952629
  H         4.5598809661        6.0654026253       11.6433596042
  C         2.8872156720        7.2283339934       10.9098414498
  H         7.6221349060        8.2029890591       29.5350238528
  H         6.0486195970        7.6225443451       28.5922260236
  C         6.7583717799        6.3675917765       30.1778223165
  H        -8.9746337843       10.4733590242       23.8000391062
  H        -8.3808483340        8.9181145271       24.2434008017
  C        -9.5864026136       10.0062367563       25.8030639530
  S        -3.6512022254       14.7801792782       37.0056130582
  C        -3.3045087722       17.3266588287       37.5335029078
  H         2.1350512316        6.9950904125       11.7114927778
  H         2.7220262101        8.1995665005       10.4653849233
  H         2.6900404446        6.5051786974       10.0804924713
  H         7.2092004137        5.5745525324       29.5985381574
  H         5.7628080386        5.9791170159       30.4969612542
  H         7.2573044725        6.4114397070       31.1114725858
  H       -10.0076007845        9.1113731271       26.0727624067
  H       -10.4379132879       10.7124508206       25.7658110814
  H        -9.1386164732       10.5401346012       26.6016067117
  C        -3.9151747983       15.4903431189       38.5936488731
  N        -3.7418385912       16.8567714508       38.6870151490
  O        -3.0814352858       18.5171726959       37.3963599590
  S        -4.7900344426       14.5335675662       39.8115542257
  C        -3.8016137704       17.5861579095       39.8729581419
  H        -4.2745518629       18.5533792870       39.6841067317
  H        -4.6070166399       17.1555056482       40.5018069363
  C        -2.4920661907       17.7468268587       40.5839622285
  H        -2.5972911327       18.3443968213       41.4391311580
  H        -2.0739366187       16.7743714611       40.8933577431
  H        -1.7297294446       18.3933926550       40.1041128379
  H        10.0598718974        9.7052892870        4.1689113138
  C         9.3010007075       10.4917322366        3.9561922444
  H         9.5411502147       11.5165513853        4.2958323574
  C         7.9546878578       10.0339383293        4.6531850010
  C         9.2933065729       10.4663508807        2.4422130537
  C         7.6124147577       10.3773603181        6.0971689943
  H         7.1249748958       10.5008358362        4.0247069038
  H         7.8033618770        9.0361677391        4.5080637742
  H         9.7346101973        9.5004242553        2.0300667290
  H         9.7437031200       11.4538587547        2.0551695892
  H         8.2331603965       10.6544357278        2.2853385039
  C         6.8132851251        9.3221883188        6.8734727521
  H         8.6225519513       10.4047630254        6.5100448103
  H         7.2333627339       11.3966238167        6.1493878669
  C         6.1495407805        9.6443650139        8.1770054014
  H         7.4625289767        8.3251403223        6.9787703722
  H         6.1484369661        9.0177573777        6.0085159934
  C         5.1029591216       10.7673244587        8.0495443489
  H         6.9972552795        9.9095885116        8.8700001749
  H         5.8235718765        8.7914885309        8.8076794117
  C         3.9193170573       10.2025951443        7.2934142511
  H         4.7200825906       11.0906028431        9.0451653688
  H         5.3728486698       11.5768737401        7.4643495512
  C         2.6305436422       11.0840402634        7.0451858240
  H         3.6264355231        9.2056157550        7.8773082928
  H         4.1344024599       10.0436447216        6.2591208669
  C         3.0045053961       12.4560077484        6.3906144236
  C         2.2355312987       11.7962013422        8.2891200717
  C         1.5581333622       10.3235524933        6.2722494252
  C         2.7721603239       13.6349009050        7.1828036791
  C         3.5060556895       12.7516713350        5.0587323875
  C         2.3121398248       13.1757058253        8.3906575815
  C         1.8681947107       11.1356798383        9.4638482618
  H         2.0425535632        9.7024319013        5.5740662217
  H         1.2146558489        9.6098069209        7.0657031938
  C         0.3167734358       11.1504436669        5.8302249919
  S         3.2604821315       15.0807275997        6.4047714593
  C         3.5927907056       14.1523419422        4.9270044766
  H         3.6243222653       11.9545163842        4.4016908080
  C         2.0340392907       13.7583958317        9.6345692056
  H         1.8011418902       10.0870924561        9.3544888960
  C         1.4970778995       11.7493757431       10.6363799236
  H         0.6985944738       12.0865431288        5.4203468011
  H        -0.2534182635       11.5656111828        6.6106181895
  C        -0.6600375756       10.5937394052        4.6919494749
  C         4.1997904690       14.8306326020        3.7793747742
  C         1.5196060274       13.1231980692       10.7602796626
  H         2.1874619174       14.8378178409        9.7808897273
  C         1.1356744442       11.3612997739       11.9356495741
  H        -1.5620851330       11.1882205321        4.6600628523
  H        -1.0190638563        9.5472810336        4.8745329366
  C        -0.0971186951       10.8180404130        3.2324776733
  C         4.0935622122       16.2315839451        3.4906259575
  C         4.7267556551       13.9790762110        2.6850002792
  C         1.1055330298       13.7827090847       12.0565294320
  C         0.8591337157       12.4208549819       12.7283204788
  S         1.0384983591        9.7464929318       12.6752157381
  H         0.9029743234       10.3681626585        3.0277474368
  H         0.0723933610       11.8764878451        3.2086952441
  C        -0.9141344219       10.3425876835        2.0323659563
  N         3.8299417600       17.1491547979        4.4080401946
  C         4.4805190663       16.7169500762        2.2705707348
  C         5.0516963363       14.4479445802        1.3945663345
  H         4.9265014783       12.9358518402        3.0434527327
  C        -0.2675202077       14.5985330356       11.9642781824
  C         2.3021248900       14.4756925657       12.7837217380
  C         0.4531681059       11.9588243980       14.0169920569
  C         0.5346645688       10.5651303402       14.1915086424
  H        -1.1736499718        9.2660397587        2.2432990288
  H        -1.8608021551       10.9272565789        2.0566255611
  C        -0.2611976985       10.4986005577        0.6521453999
  S         3.9464768473       18.6548796358        3.7348709697
  N         4.5770897630       18.1168546437        2.3130903524
  C         4.9142194238       15.9285567711        1.1550367960
  H         5.2587963504       13.6279495123        0.7553426603
  H        -0.1473346679       15.3754989081       11.1901183622
  H        -0.5326812480       15.1655527334       12.8551514874
  C        -1.4927718768       13.7117028302       11.4885703248
  H         2.5419956231       15.3802857396       12.2146750772
  H         1.9992063062       14.7590475137       13.8106286503
  C         3.4786982114       13.6399404839       13.1294306248
  H         0.3434730619       12.6949948690       14.8551516181
  C         0.1394656636        9.7137931893       15.3834618529
  H         0.6574592269       10.0763558692        0.7733299048
  H        -0.0940891219       11.5351490563        0.4477333079
  C        -0.9693553594       10.0387107663       -0.6507687380
  C         5.1338777813       16.5429646202       -0.0872920822
  H        -1.1553231575       13.0086842623       10.7195528008
  H        -1.9529738109       13.0134686288       12.2355461018
  C        -2.6532041721       14.6114328406       10.9010980716
  H         3.7625969416       13.0941451539       12.2079321086
  H         3.3123699310       12.8580530212       13.8350781062
  C         4.6510888352       14.4955352852       13.7653768929
  C         0.1210388443        8.3711028658       15.6014908377
  C        -0.1135864787       10.4964316081       16.5788260975
  H        -0.2120851905        9.4754729904       -1.1713668144
  H        -1.8501326762        9.4005033140       -0.5215925566
  C        -1.2957094738       11.1618290246       -1.6284601264
  H         4.6700525677       17.4857566391       -0.2197076422
  C         5.5016865574       16.1338086203       -1.3082588297
  H        -2.3500747516       15.3622026407       10.1827247861
  H        -2.9423996919       15.2521442055       11.7611427116
  C        -3.8702674354       13.7764837116       10.6422756446
  H         5.1282981942       15.1077766468       13.0636639376
  H         4.3264396906       15.0967072377       14.5483268467
  C         5.7067023635       13.6625668904       14.4080310004
  N         0.4606987268        7.5471315918       14.5884050155
  C        -0.1788011737        7.7260761268       16.7308532555
  C        -0.4985270389        9.8611623153       17.7676181029
  H        -0.1075360799       11.5242531158       16.4009787047
  H        -0.6991794979       12.0790616048       -1.7544300622
  H        -2.3484217312       11.5695992217       -1.5259358020
  H        -1.2687706227       10.7174356259       -2.6796066090
  S         5.8311209075       14.5187354593       -1.6365672216
  C         5.4812467680       17.0139145476       -2.4984861282
  H        -3.5973613810       13.0485186617        9.9105810705
  H        -4.2045011831       13.1442574420       11.4581537360
  C        -5.1072943251       14.5957679416       10.0860044391
  H         5.7774072657       12.6621240298       14.0249691231
  H         5.3171221680       13.4728508534       15.3889035165
  C         7.0712143782       14.2855740393       14.5760252906
  S         0.2545661216        5.9801917934       15.0578808761
  N        -0.2499010088        6.3497453637       16.5890406806
  C        -0.5938028785        8.3701466390       17.9027199518
  H        -0.5908966700       10.4695862969       18.6231524310
  C         5.9102487275       14.9743424159       -3.3512329477
  N         5.8089126312       16.3381616481       -3.5949106865
  O         5.2263438698       18.2337989044       -2.3556353248
  H        -5.5869495646       15.2067805764       10.8301284988
  H        -4.7829030169       15.3528348054        9.4747068372
  C        -6.0833942025       13.7619674841        9.2280712911
  H         7.4606474604       13.7994208976       15.4976643600
  H         7.7121793997       13.8670115774       13.7317344056
  C         7.1998166237       15.7521846017       14.8293385434
  C        -1.0170935815        7.6121064223       19.0928011947
  S         6.1482138171       13.7872996539       -4.6134552207
  C         5.7488810130       16.8954833968       -4.9035872363
  H        -5.6503187041       13.7405724868        8.2750617326
  H        -6.0854613912       12.7118750361        9.5845301910
  C        -7.4145716408       14.3609994872        9.0530994215
  H         7.4772246684       15.9781578308       15.8997214446
  H         6.2394296899       16.2997448511       14.8002822522
  C         8.1846910253       16.5606939329       13.9289531177
  H        -0.7740981509        6.5727040310       19.2132399477
  C        -1.6030087143        8.0386799795       20.2355862968
  H         6.4850576193       16.3736695791       -5.6451649766
  H         6.1157961889       17.8979725249       -4.9407359150
  C         4.2675287484       17.0848014271       -5.2668879209
  H        -7.9178529129       13.8188784714        8.2848179318
  H        -7.3369893387       15.3791298853        8.9425429450
  C        -8.1681734761       13.9692764011       10.3005260774
  H         9.0870461685       15.9584361849       13.7732771144
  H         7.7366549115       16.8847423527       12.9983081107
  C         8.6427718419       17.8904826626       14.5686553140
  S        -2.2268241394        9.6269258124       20.6032966458
  C        -1.6507233016        7.1517531218       21.3989307748
  H         4.0076238902       18.0107410456       -5.7110607737
  H         3.7124175334       17.0170751702       -4.3446449642
  H         3.9838461557       16.2896831037       -5.8923052397
  H        -8.4357858478       12.9053039566       10.2031912092
  H        -7.5507027595       14.2366461678       11.1683028599
  H        -9.1291628746       14.6513091088       10.2998756492
  H         9.2813216666       18.4251582659       13.8712685036
  H         7.7561991802       18.5937002423       14.8327260946
  H         9.2165105028       17.9166575159       15.5385415559
  C        -2.7666968849        9.0084752490       22.1004288664
  N        -2.1787762714        7.8310159451       22.4693024705
  O        -1.3985871746        5.9580384773       21.3317047682
  S        -3.4970747007        9.9616815858       23.3465320233
  C        -2.3797688473        7.2232334697       23.8426791520
  H        -3.2785800952        6.6223530985       23.9251360046
  H        -2.4865820494        7.9714956169       24.5790530318
  C        -1.1499401975        6.4421172346       24.2815467313
  H        -0.3120766643        7.0151123380       23.8933237408
  H        -1.0187904171        5.3930535187       23.8200031003
  H        -1.0848739724        6.2712523691       25.2946230661
