352
i =
  H        -2.5716048315       14.7516802539       16.6123576096
  C        -2.6408232200       13.6443610635       16.6175068638
  H        -3.7281565844       13.5024650335       16.9394683435
  C        -1.5837866525       13.1745950879       17.6011950126
  C        -2.3295081327       13.1741533511       15.1820917954
  C        -1.6616942355       13.8547026373       18.9797447195
  H        -1.6534488644       12.0373808024       17.6648294633
  H        -0.6269248564       13.4255875247       17.2170675195
  H        -1.3565245647       13.5752419090       14.9194124058
  H        -2.3000755715       12.1017800692       15.2821981438
  H        -2.9816975317       13.4796298379       14.4369260373
  C        -1.6663999795       12.9018226121       20.1761503190
  H        -2.4500259825       14.6184035717       18.9934707923
  H        -0.6921711120       14.3537587914       19.1928395201
  C        -2.0849239876       13.5614746913       21.5246844866
  H        -2.2605910602       12.0291786408       19.8948817238
  H        -0.6667526580       12.5466673464       20.1917958632
  C        -1.1703276304       13.0569117723       22.5716374458
  H        -3.0770869309       13.2621271626       21.8989750836
  H        -2.0516500045       14.6324497702       21.4620716328
  C         0.1368893154       13.8309272406       22.6903047962
  H        -1.6344677853       13.0457103734       23.5419805176
  H        -0.9761127815       12.0053863349       22.4754222132
  C         1.3294219508       13.1285811572       23.4947113595
  H         0.6363514015       14.1633208896       21.7805698556
  H        -0.1036465276       14.7205857777       23.2635837160
  C         1.7960350031       11.7860832202       22.8687592788
  C         0.9262230508       12.4670560511       24.8032183804
  C         2.5527759041       14.0208050304       23.6025858784
  C         1.5700719338       10.7367149065       23.7457305744
  C         2.2406528396       11.4533538951       21.5922393984
  C         1.0686504265       11.1386602987       25.0097477222
  C         0.2923107009       13.0715231889       25.8569654319
  H         2.7855058827       14.1848418337       22.5718126575
  H         2.3258855980       14.9558313545       24.1912654276
  C         3.8297099749       13.3148112685       24.1473339271
  S         1.9597372427        9.2190659778       22.9693558127
  C         2.4034365852       10.0761766653       21.5653450377
  H         2.3938754169       12.2293834501       20.8901088148
  C         0.6128741973       10.5112691601       26.1260836135
  H         0.1314240239       14.1433175877       25.8418367908
  C         0.0385553281       12.5084221495       27.0333061492
  H         4.1454237298       12.5152205657       23.4661266876
  H         3.6679190865       12.7968794117       25.1577786072
  C         5.0919842815       14.1562029379       24.4090553772
  C         2.9065965406        9.4288122610       20.2955799903
  C         0.2188679197       11.1976085672       27.2479035851
  H         0.6404501555        9.4457606390       26.2150479694
  C        -0.3901893450       12.8499473798       28.2841072188
  H         5.9191220815       13.5921550059       24.9884541105
  H         4.7673115477       14.9326892372       25.1092451494
  C         5.7134449743       14.7031782223       23.0598695524
  C         2.7948658625        8.0452151467       19.9330116864
  C         3.3803644917       10.3372538678       19.1970491479
  C        -0.1578335725       10.5025233717       28.5901791009
  C        -0.4655106148       11.8322348971       29.2163344114
  S        -0.7297010190       14.3805844445       29.0168945543
  H         6.4766385663       15.3590316535       23.4682061237
  H         5.1642666219       15.4451814750       22.5015268204
  C         6.3341475493       13.6840328269       22.1297852191
  N         2.4621254326        7.0495954280       20.8542207490
  C         2.9595693955        7.5913503894       18.6559939379
  C         3.6253311908        9.8706581885       17.9362163239
  H         3.5104941714       11.4138498007       19.3262410201
  C         0.9767843239        9.6920583274       29.3529757759
  C        -1.4898867101        9.6495943234       28.4055598921
  C        -0.9897179668       12.1754920812       30.4407419410
  C        -1.0968225220       13.5339827025       30.5195874317
  H         7.3805199962       13.9732693510       22.0505320327
  H         6.3151811773       12.6868357016       22.6717008075
  C         5.6776639661       13.4770896435       20.7810688378
  S         2.3408351883        5.5875578201       19.9935255910
  N         2.7653008452        6.2445245113       18.5856687756
  C         3.2654544910        8.4844367647       17.6160725287
  H         4.0527387214       10.4767833135       17.1792161755
  H         1.1361466077        8.7429095985       28.9131668482
  H         0.4545893268        9.4409154076       30.2925655817
  C         2.1576878644       10.5507111544       29.7705961726
  H        -1.1698460553        8.7474969656       27.8728080117
  H        -1.8696653423        9.5104401448       29.3729172705
  C        -2.6011072297       10.3378950645       27.5866587175
  H        -1.0420050226       11.4860613285       31.2862915874
  C        -1.2430486765       14.3255585617       31.7913078957
  H         4.9193159844       14.2079091028       20.4995210232
  H         4.9893957091       12.6350465749       20.9739008950
  C         6.7215150511       13.2774607066       19.6565566083
  C         3.4993201622        7.7973228313       16.3860546746
  H         2.4370294242       11.2113161253       28.9753369137
  H         1.8599089528       11.0450832344       30.7072861495
  C         3.3805385858        9.6928971084       30.2619682413
  H        -2.1930369702       10.6881496245       26.5721128671
  H        -2.7628127214       11.2932366344       28.1267186081
  C        -3.8884618265        9.5973417363       27.5288726005
  C        -1.4370238949       15.7189147203       31.8492494166
  C        -1.4667186576       13.6089491055       33.1015985774
  H         7.3200907827       14.2559965588       19.5752335097
  H         7.3415477475       12.4094948088       19.9378660142
  C         6.1766141157       13.1751829965       18.2207382502
  H         3.0516205894        6.8423298764       16.3376435907
  C         3.8909353499        8.2181973886       15.1314081082
  H         3.4470943160        8.8668687701       29.5533849108
  H         3.2137300561        9.1729466605       31.2488952502
  C         4.6354974333       10.4693253658       30.3706619596
  H        -3.7903781189        8.6997073964       26.9387840701
  H        -4.1597430987        9.2287491816       28.4783146844
  C        -4.9174626012       10.5006513447       26.9368043209
  N        -1.2040890155       16.6404906410       30.8384929032
  C        -1.7761678981       16.3752195329       33.0422688280
  C        -1.7985032928       14.2662231091       34.2627742823
  H        -1.3245266831       12.5672266347       33.1235572216
  H         7.0914620373       13.0391861575       17.6061756129
  H         5.5968290670       12.2902979561       17.9752882521
  H         5.6786443132       14.0446352752       17.8238660806
  S         4.1435422094        9.7950241680       14.6829894248
  C         3.9566505929        7.2236174806       13.9939290195
  H         4.6683485383       11.2819208308       29.6964640327
  H         4.8126605222       10.9559204205       31.3157106414
  C         5.8376669066        9.5470906261       30.1701096148
  H        -4.3770101767       11.3610207459       26.6531358000
  H        -5.6563245314       10.8342253966       27.6139301203
  C        -5.6636253924        9.8019580674       25.8230899558
  S        -1.5123474086       18.1240499876       31.3933906883
  N        -1.9459842083       17.7537912201       32.9364547355
  C        -1.9666125051       15.7526028546       34.3251502681
  H        -1.9786032607       13.6913973359       35.1489989012
  C         4.3757888311        9.1835867408       13.0497698273
  N         4.2808471463        7.8674983498       12.8359528552
  O         3.7829660843        6.0353762187       14.1299710550
  H         6.7124375299       10.1377725681       30.1450316714
  H         5.6978847472        9.1424279501       29.1877597566
  C         5.9119407556        8.2378851501       31.0801975611
  H        -4.8790579967        9.3945163388       25.1285027468
  H        -6.2896216574        8.9382077638       26.1170202179
  C        -6.7004698480       10.6998368800       25.2345646907
  C        -2.3205680376       16.5512458301       35.4337075001
  S         4.7669204207       10.1865624374       11.7391239201
  C         4.3133181347        7.1463480361       11.5408362820
  H         5.9742843575        8.4128653057       32.1399090340
  H         4.9798453111        7.7450940400       31.1354400531
  C         6.9216466624        7.2740034589       30.5443127672
  H        -6.3526086534       11.0407065704       24.2965830699
  H        -6.6621367100       11.6513158808       25.7325774133
  C        -8.0722468083       10.1494486445       24.9272183886
  H        -1.7211547228       17.4603872411       35.4994807212
  C        -2.9367567429       16.3841544292       36.6119411028
  H         5.0857208933        7.5581287152       10.8799496269
  H         4.7541438385        6.1368469321       11.6262437716
  C         2.9732823703        7.0138662121       10.8251455134
  H         7.9463030697        7.5906652379       30.6377381639
  H         6.7451598267        7.0581145824       29.5138464576
  C         6.9157492054        5.9465538188       31.2890745495
  H        -8.4792448567       10.5259677268       23.9242381271
  H        -8.0201352857        9.0812163791       24.6959792647
  C        -8.9735767851       10.4622436101       26.0553797868
  S        -3.7131558525       14.8798770447       36.9598727207
  C        -3.0754467748       17.4233496771       37.6334708427
  H         2.8447060533        7.7636169986       10.0660838725
  H         2.8593008942        6.1827910578       10.1203772259
  H         2.0919002669        6.9884758557       11.4827306913
  H         7.7373836859        5.9237101369       32.0235262450
  H         7.1988846156        5.1085582737       30.7632082467
  H         5.9503960020        5.7846076078       31.8278306379
  H        -8.7610145154        9.8840995999       26.8929827941
  H        -9.9465547049       10.2319113799       25.6355178734
  H        -9.0022960779       11.5465079574       26.2566479997
  C        -4.1376430543       15.6749477986       38.4907371839
  N        -3.7955458058       16.9729545529       38.6606906628
  O        -2.4052660106       18.5004980007       37.5520940956
  S        -5.0260954351       14.9076390701       39.8466677919
  C        -4.0534806177       17.7478688610       39.8364348151
  H        -4.2136469726       18.7836978030       39.5120356104
  H        -5.0249427237       17.5082463368       40.3464905976
  C        -2.9366685925       17.6320976267       40.8709605924
  H        -3.4268314862       17.7718209597       41.7995961271
  H        -2.5024101852       16.6408956332       40.7891563827
  H        -2.1195921874       18.2651750043       40.5745055898
  H         7.5599216845       11.2316206012        3.9765592134
  C         8.1675509865       10.3613215452        3.9357318583
  H         7.5609399288        9.4573351328        4.0501217490
  C         9.1017525879       10.3664377371        5.0942832053
  C         8.9248094323       10.3766238522        2.6178626477
  C         8.4232536251       10.7497642891        6.3571163470
  H         9.6702430544        9.4705253373        5.2187601355
  H         9.8808119498       11.0524465603        4.9025511583
  H         8.3039879452       10.2585315122        1.7589741608
  H         9.4909220141        9.4619402051        2.6133306392
  H         9.5721754507       11.2393267723        2.4280359906
  C         7.5216732415        9.6728070043        6.9992637956
  H         9.1265609663       11.1632041413        7.1424660506
  H         7.7734348234       11.5875477385        6.2117531374
  C         6.6960479551       10.1394364375        8.2254445538
  H         8.2840500133        8.9033335802        7.2385377333
  H         6.9698399322        9.2269675676        6.1515236978
  C         5.3584444086       10.9547301871        8.0039672228
  H         7.4082114007       10.5497118779        8.9419708343
  H         6.3683819886        9.1978263874        8.7643930422
  C         4.3583387343       10.2896640624        7.1069523665
  H         4.9359559449       11.1642777897        8.9726624860
  H         5.4701504847       11.9195016345        7.5622503036
  C         3.0317902451       11.1130674028        6.9581445274
  H         4.1046851568        9.3388413904        7.4623766203
  H         4.7615072429       10.2102613908        6.0839362623
  C         3.3644797689       12.4259970974        6.2583192222
  C         2.5562302719       11.7490416182        8.1959404131
  C         1.9402551176       10.3840572168        6.1232009286
  C         2.9935148577       13.5108625151        7.0337044640
  C         3.8835750295       12.8412627544        5.0385219928
  C         2.5305104320       13.0974135459        8.3036607238
  C         2.0310309049       11.0972689198        9.2923896598
  H         2.4989494490       10.1325828753        5.1961556818
  H         1.7119786818        9.3765669705        6.6492671293
  C         0.6067756540       11.0747805852        5.9374323501
  S         3.2375249618       15.0635976415        6.2967289902
  C         3.8986255098       14.2198186099        4.9721462889
  H         4.1804824939       12.1841589344        4.2621175678
  C         2.1927341612       13.6889703130        9.4966373177
  H         1.9526634698       10.0496333452        9.1819044957
  C         1.7516453330       11.6818900700       10.5003976395
  H         0.8962818404       11.9459209131        5.3029683210
  H         0.1926714235       11.3815488368        6.9011048826
  C        -0.5049640610       10.3428906028        5.0986185497
  C         4.3512285477       14.9438612718        3.7357253220
  C         1.7613156144       13.0403401713       10.6474214244
  H         2.3066686861       14.7453726387        9.5432440875
  C         1.3796102349       11.2353240401       11.6923027895
  H        -1.3934512253       10.9852471791        5.1291935640
  H        -0.6362075770        9.4192268837        5.6057940876
  C        -0.0545904537       10.0302668676        3.7041606716
  C         4.3243746305       16.3317302736        3.4763615510
  C         4.7002035553       14.1611064111        2.5423426678
  C         1.3380604919       13.7000479489       11.9596685126
  C         1.1572906996       12.2696005463       12.5711765781
  S         1.0734092488        9.7467309622       12.4424023388
  H         0.2595447624        9.0286583310        3.8513760774
  H         0.7314206807       10.6809295448        3.3484467817
  C        -1.1577677730        9.8903463816        2.7091248203
  N         3.8993388628       17.2881643269        4.3812712829
  C         4.4596529587       16.9064328218        2.2273868846
  C         4.9735021353       14.6754325885        1.2966467570
  H         4.6425843024       13.1216310711        2.6122873024
  C        -0.1189553990       14.4526102910       11.8656835305
  C         2.3965608473       14.4461721186       12.7376469345
  C         0.8729704816       11.8296315412       13.9313895183
  C         0.7509532097       10.4554686718       13.9447657041
  H        -2.0218100852        9.6411550930        3.2807313669
  H        -1.2985511366       10.8595966673        2.1288689844
  C        -0.9832751828        8.8232309178        1.6328492693
  S         3.7643603611       18.7372819031        3.6321806647
  N         4.2318926181       18.3118194198        2.1696857625
  C         4.8864013220       16.1728501643        1.0789778232
  H         5.2567326910       13.9986652867        0.5398255287
  H        -0.0794186934       15.3247090681       11.1424577368
  H        -0.4504363048       14.8870854839       12.8411159990
  C        -1.1333469625       13.5132122208       11.2900191222
  H         2.2778963226       15.5038180922       12.5010127101
  H         2.0709482280       14.3542636056       13.8070698680
  C         3.9031409396       13.9104092283       12.7913310900
  H         0.6898078606       12.5457957490       14.6718451099
  C         0.4759551326        9.6607058800       15.2187186238
  H        -1.9849864457        8.3681915621        1.4281066818
  H        -0.3657625927        7.9449521290        2.0190143758
  C        -0.2341949247        9.3809444878        0.3979100289
  C         5.0411176011       16.8287658502       -0.2170405803
  H        -0.8116696243       13.1290330062       10.2535130140
  H        -1.4137434224       12.5850351799       11.8052798975
  C        -2.4534691635       14.1879881525       10.9866991534
  H         4.3689090481       13.7473762596       11.8329326204
  H         3.8179692047       12.9946668961       13.3480517571
  C         4.8351644268       14.8081588655       13.5130098767
  C         0.2865755039        8.3053073620       15.2268552185
  C         0.4384944765       10.3699278267       16.5402746663
  H         0.8308444201        9.4191154700        0.6284046510
  H        -0.2999238223        8.5923461865       -0.3346163588
  C        -0.9294460669       10.6407670108       -0.2792757730
  H         4.8634764759       17.8509857673       -0.1834598174
  C         5.2139066834       16.2649400891       -1.4511477841
  H        -2.3181428284       15.1229669430       10.4141043527
  H        -2.9217335000       14.5530892060       11.9172820992
  C        -3.4634317392       13.2869361240       10.3124062002
  H         4.2828059549       15.7547946686       13.5466635378
  H         5.0111667821       14.5368091125       14.5667952082
  C         6.2087736358       15.0930710452       12.8743819053
  N         0.6920900407        7.4585752528       14.1613276945
  C        -0.0089610955        7.5773111970       16.3933390518
  C         0.1490163861        9.6573259483       17.7289495199
  H         0.6938615193       11.4346875620       16.6312619926
  H        -0.8050185558       10.6042168512       -1.3940825173
  H        -0.4551364390       11.5572388960        0.0053786083
  H        -1.9728867017       10.6572443701       -0.1124898248
  S         5.5160528285       14.6143482756       -1.8732322124
  C         5.2395888484       17.1870150642       -2.6333444406
  H        -2.8815748784       12.8361043815        9.5365711574
  H        -3.7032000744       12.4829470984       10.9880861838
  C        -4.7241920390       14.1310214963        9.7586364571
  H         5.9206940234       15.3015192409       11.8614748735
  H         6.7616588504       14.1510688323       12.8568370951
  C         6.9881771160       16.3517927145       13.3131517358
  S         0.5276798072        5.9775876744       14.6916760503
  N        -0.0501547686        6.2108607774       16.2005132924
  C        -0.1860700939        8.2035322116       17.6356645254
  H         0.1175830123       10.1189868371       18.6548388846
  C         5.6471487403       15.2028227207       -3.6087504113
  N         5.4884733893       16.5239635671       -3.8051477000
  O         5.1406525130       18.3860667412       -2.5377146604
  H        -5.3741119298       14.5769715292       10.5531128733
  H        -4.3248751537       14.9975907685        9.1818092108
  C        -5.6878187713       13.2385871237        8.9054986643
  H         7.8532728648       16.4212692380       12.6374884238
  H         6.4587494273       17.2222092143       13.2461133203
  C         7.4653450481       16.2796723333       14.7767538101
  C        -0.5447073316        7.3784383362       18.7621492350
  S         5.6980894665       14.1929791538       -4.9358610882
  C         5.5289227585       17.1577710817       -5.0920050229
  H        -5.3346289915       13.2400677248        7.8722201045
  H        -5.5390119167       12.2123263773        9.2395379264
  C        -7.2210134648       13.7753577455        8.9086077527
  H         8.1099600624       15.4306704112       14.8122160642
  H         6.5857228832       16.0512925789       15.3933146211
  C         8.2847246344       17.5338124465       15.1715430274
  H        -0.2421388723        6.3278826530       18.7261913033
  C        -0.9526769192        7.7117163278       20.0192842368
  H         6.3955056714       16.8665415556       -5.7113622808
  H         5.6146117982       18.1867040363       -4.9435705144
  C         4.2028179160       16.8838380744       -5.8497990602
  H        -7.7930667022       13.2314398461        8.1120268614
  H        -7.2403622141       14.8108198409        8.6952970811
  C        -7.8620595433       13.4833815600       10.2396339887
  H         8.9879539100       17.3644744779       15.9812869653
  H         8.8270210709       17.8694463411       14.2442634876
  C         7.5398908917       18.7653619035       15.6629119876
  S        -1.5277295894        9.2937903853       20.5524174994
  C        -1.0667660021        6.6833928035       21.0148914886
  H         3.5890688561       16.1963786222       -5.2404289882
  H         4.4551300605       16.4068797787       -6.8474318376
  H         3.6638628818       17.8158566559       -5.9709534030
  H        -8.8678184047       13.6217378699       10.1123861060
  H        -7.7977919784       12.4610387231       10.3836276563
  H        -7.4936551097       14.0050690323       11.0887698859
  H         7.5333306357       18.9651857205       16.7800981176
  H         7.9649688527       19.6641678855       15.2952931661
  H         6.4742629155       18.7055237804       15.4262119594
  C        -1.6960711633        8.5797576321       22.1408955595
  N        -1.5740904612        7.2244483993       22.1189900504
  O        -0.8311395610        5.4699208023       20.8585247463
  S        -2.3330922117        9.3772820812       23.6053640696
  C        -1.7463069703        6.4140372860       23.2993429323
  H        -2.1672853768        5.4307420773       22.9829172175
  H        -2.4204301622        6.7028240674       24.0940667577
  C        -0.3766818924        6.2735401678       23.8933150768
  H         0.4032464308        6.5169250870       23.1419885426
  H        -0.2557782399        5.2876623589       24.2289770992
  H        -0.1283821747        6.9587334636       24.7062265836
