352
i =
  H        -3.9526673855       14.9257460676       16.8010579903
  C        -3.6825282734       13.8657906976       16.7937666745
  H        -4.5056563747       13.3514727481       17.2305653322
  C        -2.5795108540       13.5862372505       17.8456179250
  C        -3.3916528169       13.3010183585       15.3443000946
  C        -3.0683311233       13.4892485398       19.3003604672
  H        -2.0870141728       12.6611286693       17.4924776028
  H        -1.8204039369       14.3833870990       17.8183579296
  H        -2.9581923436       14.0713312228       14.7042830481
  H        -2.6682624703       12.4390720029       15.4084128119
  H        -4.2483039272       12.9042482113       14.8837811062
  C        -2.0368275835       12.8275144266       20.1844910206
  H        -3.9489042159       12.9537086658       19.4883655768
  H        -3.4027942651       14.4198475237       19.6625221729
  C        -2.4733860155       13.1109846497       21.6786716698
  H        -2.0480467263       11.7605904303       20.0069140004
  H        -0.9731564189       13.1554517257       20.0350508973
  C        -1.6707060770       12.5646867071       22.8666132995
  H        -3.4407643987       12.5747587091       21.6766470516
  H        -2.6512989901       14.1386606989       21.8582411719
  C        -0.4160592460       13.5107896118       22.9628680335
  H        -2.2981310294       12.6672498981       23.7115576562
  H        -1.3454866906       11.5520850680       22.8117788766
  C         0.8810695570       12.8921358384       23.4940640365
  H        -0.1377781047       14.0475991350       22.0200472547
  H        -0.6642958234       14.3678576950       23.6006603119
  C         1.2250019604       11.5949938639       22.8061903032
  C         0.4660355421       12.2176791369       24.8365422131
  C         2.0375592938       13.8980020792       23.6053585696
  C         0.9797075617       10.5058927320       23.6384523764
  C         1.8532235288       11.2021757748       21.5934023642
  C         0.5374413763       10.8837902742       24.8829751887
  C         0.1978805900       12.8084531371       26.0649698653
  H         2.1523298790       14.3815441089       22.6226301607
  H         1.7164291796       14.6991808163       24.2163943017
  C         3.3470749901       13.4021752823       24.2928389068
  S         1.4873282007        8.9901179745       22.8723965166
  C         1.9339168297        9.8415549237       21.4024233014
  H         2.0626068124       12.0279663105       20.9199405617
  C         0.1589974388       10.2206107126       26.0426748131
  H         0.2896351766       13.8826574654       26.1494048998
  C        -0.2428327140       12.1382626209       27.1489913814
  H         3.7416910805       12.5921924799       23.7488061572
  H         2.9706181050       13.2009180722       25.3200637805
  C         4.4479360563       14.3863908187       24.6741259277
  C         2.3866292843        9.1515337977       20.1530015202
  C        -0.2150706476       10.7937622979       27.2405057193
  H         0.1999325784        9.2102752199       25.9744536833
  C        -0.6431228238       12.4569217586       28.4088935828
  H         5.2436286524       13.8282070527       25.2223550302
  H         4.1293017047       15.2616996056       25.2964472926
  C         5.0093296043       14.9994987069       23.4887415796
  C         2.4467962855        7.7519769757       19.9093902904
  C         2.7340470982        9.9722326681       19.0376249661
  C        -0.5513752640       10.0555199147       28.4789028914
  C        -0.8761580036       11.3434322178       29.1923325574
  S        -0.9544468994       13.9133802020       29.2655856739
  H         5.5700012748       15.8639845715       23.7394832354
  H         4.3263404755       15.1266447235       22.6599938602
  C         6.1272243182       14.2236706737       22.8589760625
  N         2.2577935086        6.7721537598       20.8680518144
  C         2.7369380017        7.1733102001       18.6848781037
  C         3.0134448197        9.3861720067       17.7600491291
  H         2.5720777638       11.0465772827       19.1407984805
  C         0.6165795434        9.2937967803       29.1692403476
  C        -1.8455347947        9.2019618563       28.2627085852
  C        -1.3189249099       11.7467976828       30.4304986710
  C        -1.3429979411       13.0421000133       30.6412698912
  H         7.0239917685       14.8072292654       23.1632648752
  H         6.3453976327       13.1877870510       23.3008784600
  C         5.9473866267       14.0329976436       21.3467980169
  S         2.6042980023        5.3146334361       20.2393247859
  N         2.8294335889        5.7876578853       18.7155138745
  C         3.1143809539        7.9567788259       17.5760031093
  H         3.3878510022        9.9895934553       16.9858336092
  H         1.1194141644        8.5961484245       28.5745358756
  H         0.2970668948        8.7048880437       30.0251234693
  C         1.7920651406       10.2669433617       29.5363380434
  H        -1.6754952215        8.5240773191       27.4411138231
  H        -1.9579906431        8.6447459522       29.1541095034
  C        -3.0576702662       10.0134021184       27.9714589920
  H        -1.5754901955       10.9341988605       31.0832984940
  C        -1.6071147699       13.7102736893       31.9257431781
  H         5.5738449104       14.9487604597       20.8662858936
  H         5.0743967863       13.3677764192       21.1886912542
  C         7.1427832943       13.4809242166       20.6113786010
  C         3.3654444830        7.2405029664       16.3710411508
  H         2.2475428890       10.8595387141       28.7950103056
  H         1.3844065916       11.0256041439       30.2727383880
  C         2.9845489436        9.5282126856       30.1616912056
  H        -2.9069031755       10.7056953620       27.1751177105
  H        -3.3723713775       10.6760632802       28.8225581207
  C        -4.2438524961        9.1683535824       27.7141082610
  C        -1.5510376757       15.1332599844       32.1210572759
  C        -1.8123482527       12.9347809353       33.1442133931
  H         8.1216679644       13.9093784182       20.8960820002
  H         7.3160785865       12.5195845819       20.9694135733
  C         7.0679332432       13.3915054975       19.0626773492
  H         3.5484107524        6.2122404419       16.4878094494
  C         3.5414781586        7.5829021388       15.0568023802
  H         3.4502435742        8.7885220573       29.5354906008
  H         2.6607528873        8.9948347943       31.0583674614
  C         4.0589046553       10.5058485097       30.6764791237
  H        -4.0748291788        8.5506294616       26.8828677147
  H        -4.4584102890        8.5291553740       28.5999023074
  C        -5.3849061826       10.0707318619       27.4272972954
  N        -1.2394931862       16.0501337870       31.0944227905
  C        -1.9028391276       15.7581872050       33.2854348313
  C        -2.0059065595       13.5672966716       34.3631990189
  H        -1.8560876338       11.8204318290       33.0763321296
  H         7.1456825318       14.4065959010       18.6607208187
  H         7.9036159318       12.7914207099       18.6719198044
  H         6.1492942692       13.0261316133       18.8643907579
  S         3.7073768275        9.1771961042       14.3887692402
  C         3.4903690704        6.4773834480       14.0235133535
  H         4.0349035266       11.4429194030       30.1890624096
  H         3.8558358143       10.5834371104       31.7236914076
  C         5.4964187933        9.9774985987       30.5918288503
  H        -5.1137802693       10.9915462209       27.0289708464
  H        -5.8395061770       10.3485983511       28.3689869926
  C        -6.3987794007        9.4513370090       26.4181597569
  S        -1.3740486969       17.5245051639       31.7044303844
  N        -1.8307528221       17.1394794530       33.2231348159
  C        -2.1583834332       15.0229746165       34.4740560988
  H        -2.0134418418       12.9151581980       35.2425392047
  C         3.9481637489        8.3794297992       12.8563132884
  N         3.8608094737        7.0252012454       12.8567289909
  O         3.5247975171        5.2559995795       14.2865903424
  H         6.2063467830       10.6464514877       31.0318290491
  H         5.7728921794        9.7949337005       29.5690773686
  C         5.6877400343        8.5811634025       31.1991997016
  H        -5.9368474616        9.0039517174       25.5566552293
  H        -7.0344046483        8.6380142617       26.7146791368
  C        -7.2901839818       10.5192379626       25.7973185517
  C        -2.3163952636       15.8447086969       35.6482394117
  S         4.2891966302        9.0902098773       11.3866818293
  C         3.9138666889        6.1462021133       11.7011637822
  H         6.4226676187        8.6515294321       31.9859292731
  H         4.7445792666        8.2020358383       31.6120204758
  C         6.0760852204        7.4538826934       30.2186160531
  H        -6.8634362334       11.1332428205       25.0141286919
  H        -7.5490434172       11.3068673417       26.5233689889
  C        -8.4867920902        9.8751766830       25.1765012384
  H        -1.9839516392       16.9023811817       35.6498147212
  C        -2.9486161124       15.6756155011       36.8293025189
  H         4.7566540717        6.5512289137       11.0858071300
  H         4.1879259899        5.1002323174       11.8528391656
  C         2.6514563676        6.0664078961       11.0121340613
  H         6.9432232435        7.7654966779       29.5312703043
  H         5.2033794837        7.1635942567       29.6103684691
  C         6.5871178383        6.1826673319       31.0532031476
  H        -8.7871217355       10.4463875325       24.2832549716
  H        -8.3186363232        8.8700110821       24.6880242923
  C        -9.5338338626        9.8435048683       26.3018421203
  S        -3.6708355161       14.1901548033       37.3965840696
  C        -3.0139486171       16.8271188549       37.7368910219
  H         1.9587335210        5.6514151525       11.7737429568
  H         2.3079477543        7.0198323892       10.6218242155
  H         2.8099128258        5.2774058686       10.2430186503
  H         5.8966357183        6.0218138544       31.8261203353
  H         7.5691655204        6.3451003630       31.4525460438
  H         6.5056286957        5.3051548528       30.4457214913
  H        -9.5812629593       10.9297586791       26.6490407357
  H        -9.0957069188        9.2939859304       27.1940254340
  H       -10.5916737178        9.6225223106       26.0741974232
  C        -3.9165291607       15.0684804879       38.8845666442
  N        -3.5861203544       16.3942965263       38.8688005269
  O        -2.5667205649       17.9693410819       37.5642745952
  S        -4.6890917369       14.4802618260       40.2510621079
  C        -3.5790878072       17.2148406219       40.0947422338
  H        -3.7057585377       18.2930472493       39.9701093430
  H        -4.5071251541       16.9903902936       40.6595832182
  C        -2.3354719208       16.9933728668       41.0172384219
  H        -1.3701984060       17.1498828565       40.5278043638
  H        -2.3848791904       17.6322907054       41.8134203268
  H        -2.3296841453       15.9541984710       41.3624571243
  H         7.6383078062       11.0545976573        3.9494041147
  C         8.2740358770       10.1919039900        4.0112765284
  H         7.7167067687        9.3284938448        3.8770659188
  C         8.9579775214       10.1841457487        5.3419712036
  C         9.2352843111       10.2303733887        2.8309142506
  C         8.0235487473       10.3221230797        6.5673553881
  H         9.4927463482        9.2326520370        5.2391615593
  H         9.6115958403       10.9720890807        5.3183765648
  H        10.0975871801       10.8348326491        2.9419940603
  H         8.7944004510       10.5399091202        1.9333498238
  H         9.5680234490        9.2136959497        2.6077544950
  C         7.0776318182        9.0536641169        6.8413366101
  H         8.7220103239       10.5681373373        7.3935419083
  H         7.4183575527       11.1801181257        6.3021957783
  C         6.3408450658        9.0644791775        8.2137965729
  H         7.6385274887        8.1687823367        6.8515762995
  H         6.2891767014        9.0337051481        6.0807926700
  C         5.1657053720       10.0661051253        8.1491560046
  H         7.0442085398        9.4822634774        8.9669189157
  H         5.9039773615        8.1028683799        8.4351336766
  C         3.8558800925        9.4848597597        7.6590169846
  H         4.8697674149       10.5592360499        9.0561775722
  H         5.5687519343       10.8848893465        7.5258188859
  C         2.6864353481       10.5314526751        7.4742379939
  H         3.5581194799        8.7199377363        8.4449565409
  H         4.0658763324        9.0107684871        6.7157897876
  C         3.1121168872       11.8328957802        6.8554260999
  C         2.2109217986       11.1377573188        8.7141004909
  C         1.5024596523        9.8649780413        6.7548826834
  C         2.8204532557       12.9086072472        7.6618585143
  C         3.7146483191       12.2159239443        5.6742004272
  C         2.1802205032       12.5231236599        8.7999718203
  C         1.6393294501       10.4348112836        9.8157219810
  H         2.0113854561        9.3997388628        5.8933380351
  H         0.9771845087        9.0883973884        7.3072115397
  C         0.3284615136       10.7241905695        6.4478012935
  S         3.2581582747       14.4647751919        6.9411971037
  C         3.7194339595       13.5898085925        5.4623055424
  H         4.0249177267       11.4401326608        4.9302319214
  C         1.5861602738       13.1349461200        9.8760208298
  H         1.6706053603        9.3604550593        9.9089493632
  C         1.1745170097       11.0366880316       10.9261300892
  H         0.5956320701       11.7587490961        6.2607500113
  H        -0.3904326206       10.8675840873        7.2878903109
  C        -0.5195862804       10.1136728231        5.3281805057
  C         4.1846745005       14.2705225785        4.2127985819
  C         1.1051460491       12.4244518779       10.9916901759
  H         1.5152239603       14.2012993072        9.8551283951
  C         0.6750228983       10.6662922051       12.1141412786
  H        -1.3821494269       10.7373746522        5.2201849276
  H        -0.9957906579        9.1380944527        5.3992240655
  C         0.2277625004       10.3149943682        3.9682507795
  C         4.0323145641       15.6137291258        3.9410499945
  C         4.8566757123       13.4651725073        3.1700705005
  C         0.6102684378       13.0414677026       12.2873352651
  C         0.3318470069       11.7124435494       12.9959001466
  S         0.5583613060        9.1272369306       12.9320178093
  H         1.1837184278        9.7792978437        3.9459694782
  H         0.4185865169       11.4183690456        3.9013577850
  C        -0.6800467297        9.8197884320        2.8655145853
  N         3.4339268307       16.5136766463        4.8348184742
  C         4.3779325099       16.1902666453        2.7465637049
  C         5.0717645985       13.9563673071        1.8657291553
  H         5.0960915782       12.4623777506        3.3659301055
  C        -0.5837208623       13.9041738799       12.2242288931
  C         1.6796609840       13.7699796398       13.0102645166
  C        -0.0984280513       11.2963608689       14.2766395033
  C         0.0276896076        9.9226845894       14.3635282940
  H        -0.7430651823        8.7212234398        2.8539068253
  H        -1.7247463362       10.1001314675        3.2144958577
  C        -0.3516000417       10.2914825823        1.4323971754
  S         3.5690384681       18.0139853268        4.1518779003
  N         4.1431528425       17.5717041963        2.6902045153
  C         4.8214060566       15.4446307109        1.6341957864
  H         5.5307551367       13.2991808453        1.2322259635
  H        -0.2435299407       14.8199907894       11.6976140198
  H        -0.7320720245       14.3292477634       13.2403757404
  C        -1.8681016610       13.3538012390       11.6659099799
  H         1.8424870767       14.6669406067       12.4173556218
  H         1.2454583292       13.9888069925       14.0026204822
  C         3.0107382375       13.0029684472       13.2039193471
  H        -0.4002250923       11.9868695911       15.0386260060
  C        -0.1766232304        9.1365069551       15.6116085184
  H         0.6087456797        9.8312310001        1.2652777420
  H        -0.2519029274       11.4033522088        1.3850494709
  C        -1.4570534135        9.8407701748        0.4574587849
  C         4.9620372051       16.1329135358        0.4082319869
  H        -1.5932342852       12.7947938517       10.7598424029
  H        -2.4150296357       12.7527851829       12.3512478229
  C        -2.8039238260       14.4826564719       11.2954430557
  H         3.5366070965       12.9775160222       12.2442456499
  H         2.8527350916       11.9518086439       13.5632748227
  C         3.9562824484       13.7016291509       14.2388978760
  C        -0.1260165667        7.7004939104       15.7467732570
  C        -0.3934451451        9.8606529759       16.8919688372
  H        -1.7408484822        8.8064678288        0.6028135702
  H        -2.3511702501       10.4501711607        0.6393890460
  C        -1.0071287580       10.0355237204       -0.9713885658
  H         4.5875021138       17.1967798687        0.3612248233
  C         5.3867639893       15.6744695714       -0.8633354487
  H        -2.3380950162       15.0070672802       10.4921884769
  H        -2.7888748605       15.1814483519       12.0773313847
  C        -4.1564284725       13.9376245850       11.0653814313
  H         4.2934000239       14.6823019005       13.8619529319
  H         3.4379438807       14.0608617380       15.0466678554
  C         5.2337545637       12.8981030647       14.5894880164
  N         0.2900187487        6.8181520125       14.7576736157
  C        -0.2903275998        7.0528619007       16.9935080430
  C        -0.7294693303        9.1917632935       18.0793690973
  H        -0.6338771013       10.8857630747       16.7849970418
  H        -1.8516472132       10.5037861850       -1.5102857693
  H        -0.6114743699        9.1466353025       -1.5161439400
  H        -0.1896804357       10.7225720551       -0.9930536683
  S         5.6455261050       14.0917164163       -1.3584536806
  C         5.5459962230       16.7081857036       -1.9586762382
  H        -4.3935589283       13.0953485955       11.7167425314
  H        -4.9664116730       14.6607798603       11.3149603924
  C        -4.2471071727       13.3751537919        9.6599802805
  H         5.7772092886       12.5547856798       13.7208542198
  H         4.9410193915       11.9414262970       15.0566960475
  C         6.0640323790       13.7198020332       15.5803570502
  S         0.4040991099        5.3484460872       15.4442271278
  N        -0.2098713440        5.6838729298       16.9178363657
  C        -0.6448936857        7.7213889155       18.2246396854
  H        -1.0457121216        9.7451716007       18.9023364425
  C         5.9759819908       14.7299009174       -2.9910684820
  N         5.8659484894       16.1096296128       -3.1049666170
  O         5.5344877356       17.8913908261       -1.7435128457
  H        -4.0102242398       14.1834494999        9.0402959506
  H        -3.4235120651       12.7571369950        9.3876603481
  C        -5.5209714689       12.7789103363        9.1785392878
  H         5.5246698638       14.3101504009       16.3276876387
  H         6.5541598380       12.9132247771       16.1233421892
  C         7.0711939415       14.6167818927       14.8112450227
  C        -0.9312820363        7.0360384999       19.4216784530
  S         6.5440403344       13.8189490411       -4.2991235072
  C         6.0010045340       16.8804830039       -4.3901263397
  H        -5.3061388530       12.2224621363        8.3053696830
  H        -5.8341239742       12.1514271967       10.0576299429
  C        -6.6119617428       13.8192291904        8.8346930939
  H         6.5861377875       14.7640286888       13.8240494287
  H         8.0743815037       14.0759359195       14.6392886489
  C         7.2666636557       16.0102469339       15.4214437430
  H        -0.8712043736        5.9332035050       19.3654467745
  C        -1.3669811351        7.4475411895       20.6705012921
  H         6.7849042952       16.5332951063       -5.0281124084
  H         6.3300196891       17.9184548421       -4.2410859083
  C         4.7368693854       16.8709090636       -5.3038050609
  H        -6.9789549593       13.6119642732        7.8481917021
  H        -6.0782796190       14.7687298767        8.6508878273
  C        -7.7278247318       14.0129520528        9.8544699991
  H         6.4160686044       16.6592582953       15.3286067195
  H         7.4107230471       15.8414869947       16.5070892454
  C         8.4236225577       16.7331119781       14.7382385550
  S        -1.9780163531        9.0068483180       21.0392346295
  C        -1.5408893209        6.4352516939       21.7772593923
  H         4.7969124970       16.2556659852       -6.1698151955
  H         4.5450666032       17.8938216507       -5.6036520346
  H         3.9260848456       16.3391045417       -4.8309740321
  H        -8.5185567911       14.6127749156        9.3886195460
  H        -8.0617554818       13.0941311654       10.3142051364
  H        -7.3661571190       14.6740117110       10.6716005505
  H         8.2352963540       16.8165857118       13.6529998268
  H         8.4997622709       17.7322936714       15.0615509261
  H         9.3736302485       16.2144255706       14.9734137341
  C        -2.2368459557        8.4250673222       22.6875633567
  N        -2.0049151407        7.0815777821       22.8534397773
  O        -1.2129243489        5.2362010999       21.7023720185
  S        -2.9206170931        9.4142773831       24.0576585217
  C        -2.1857482088        6.3128634983       24.0492115775
  H        -2.4873976613        5.2977179284       23.8285612068
  H        -2.8566829178        6.8268608659       24.7041394000
  C        -0.8095734909        6.2889269080       24.7468238595
  H        -0.5139169533        5.2825822002       25.0430762412
  H        -0.7656048605        6.8281341875       25.7588036787
  H         0.0423962734        6.6450980372       24.2095115136
