352
i =
  H        -2.5947056448       14.5670243649       15.6789558473
  C        -3.0504797760       13.7911338094       16.2348657561
  H        -4.1294888751       14.0416279648       16.3607527066
  C        -2.3240547565       13.3014490546       17.3767315082
  C        -3.0625453728       12.7032505970       15.1351350086
  C        -2.9163071050       13.6392488217       18.6945910622
  H        -2.4377567737       12.2598163614       17.5150547971
  H        -1.2759560304       13.5866723919       17.1759253015
  H        -4.0877469494       12.3770818830       14.9519960937
  H        -2.6706145454       13.1984881166       14.1804122279
  H        -2.3407298037       11.9815368553       15.3910223661
  C        -1.8566859090       13.3261915907       19.8040079167
  H        -3.7221405876       12.9714847035       18.7693102985
  H        -3.1079911449       14.7062264061       18.6185701271
  C        -2.3820778209       13.4099098860       21.2178947480
  H        -1.2733769283       12.5174967541       19.6231194123
  H        -1.0382050389       13.9945145137       19.6093321248
  C        -1.4735617527       12.7671926610       22.2627606359
  H        -3.4017241340       12.9903200720       21.2551193779
  H        -2.4027220389       14.4287273233       21.4599705549
  C        -0.1916861417       13.4995576535       22.3390996475
  H        -2.0198547573       12.7234288276       23.2598799655
  H        -1.3308401602       11.7258469473       21.8639370534
  C         0.9706566475       12.8023593611       23.1536293170
  H         0.2029810012       13.4549190725       21.3240755619
  H        -0.2011983109       14.5851316132       22.5197649274
  C         1.2154482186       11.4539062694       22.5412806173
  C         0.5959640014       12.1656539250       24.4132730089
  C         2.2556129167       13.7131107453       23.2973530582
  C         0.9955986691       10.3484399316       23.3099492567
  C         1.6400408502       11.0171285344       21.2331297339
  C         0.6201241717       10.8380572935       24.5625281031
  C         0.1486887022       12.8257940858       25.5325899190
  H         2.4398904261       14.1997880638       22.3384995122
  H         2.1260547453       14.4673690497       24.0883354448
  C         3.4578401334       12.8200148310       23.6384523210
  S         1.3052144336        8.8256517758       22.5890347127
  C         1.7198646602        9.6970272701       21.1009883287
  H         1.9507365925       11.8646580166       20.6187809236
  C         0.2704264105       10.2928904982       25.7621202488
  H        -0.0464112126       13.9065314192       25.4270844740
  C        -0.1047328381       12.2268715043       26.7821034006
  H         3.7071085319       11.9449703829       22.9885812536
  H         3.2618160829       12.3121678014       24.5106014960
  C         4.8194288094       13.5952929231       23.8911549003
  C         2.2044846544        9.0818481226       19.8164014468
  C        -0.1387482843       10.8791040281       26.9155193855
  H         0.3312715684        9.2072388474       25.8899629913
  C        -0.5275229026       12.6855779952       27.9830094100
  H         5.5278173001       12.9075002183       24.2831868418
  H         4.6006079313       14.4814632060       24.4464679623
  C         5.4802926426       13.7803445256       22.5447235795
  C         2.2275112706        7.6460685950       19.4966612470
  C         2.8049863201        9.9666102885       18.8139094097
  C        -0.4951678472       10.2716343986       28.1955114313
  C        -0.7732434172       11.5860160881       28.8065288105
  S        -0.8847644024       14.1803200417       28.7530764695
  H         6.2338080210       14.5844671629       22.6577785233
  H         4.7795627420       14.2834862216       21.8719568786
  C         6.1160775462       12.4932552900       21.8995897914
  N         1.8601356985        6.6705219728       20.4310347207
  C         2.5653156061        7.1345673463       18.2582731645
  C         3.0981055515        9.4475326964       17.5314081189
  H         2.7442916177       11.0863831320       18.9552820085
  C         0.6140396960        9.4166585991       28.7720747677
  C        -1.8320891822        9.5540952126       28.1070624339
  C        -1.1460997029       12.0391704848       30.1069545173
  C        -1.2701795910       13.3962599269       30.2443894851
  H         6.7900629039       12.1161579431       22.7576387260
  H         5.2707055680       11.8259166600       21.4950751678
  C         6.8287741879       12.7558434337       20.6442654007
  S         1.6338529636        5.2528242889       19.4677669800
  N         2.3111722672        5.8149887231       18.1138752632
  C         2.9152909811        8.0135613966       17.1724373779
  H         3.2528762470       10.1800462293       16.6975017376
  H         0.9154543339        8.7131095103       28.0317721733
  H         0.1335632282        8.6590505819       29.4937694455
  C         1.7054847046       10.2755905419       29.3985400384
  H        -1.5726941483        8.5584035048       27.7769522558
  H        -2.2714693784        9.6919165547       29.1591394307
  C        -2.8764525259       10.1537167652       27.2286112081
  H        -1.1499727059       11.2275203678       31.0027301654
  C        -1.6153487648       14.1266940701       31.5098641693
  H         7.6452217305       11.9586428721       20.5286911911
  H         7.4451745698       13.5659760427       20.8180864073
  C         5.9910648935       12.8971991652       19.4255535273
  C         3.2485904239        7.3971212233       15.9942946124
  H         2.1256346474       11.0593147615       28.7923904066
  H         1.3669685057       10.9237888763       30.2253804401
  C         2.8589290028        9.4779614336       29.9920446109
  H        -2.5176542869        9.8908192454       26.1924421582
  H        -2.9307106685       11.2489399931       27.5423278930
  C        -4.2156256367        9.5522567461       27.3903133345
  C        -1.5162185979       15.5846062920       31.6275782577
  C        -1.9665729879       13.3915681255       32.7539747772
  H         5.3574987136       11.9820710572       19.1745080043
  H         5.2029350022       13.5900896673       19.7169590141
  C         6.7048589787       13.2963710089       18.1188276864
  H         3.3313025807        6.3214358991       16.1017480796
  C         3.5654152389        7.8337727169       14.6867387609
  H         3.3672535702        8.9368532114       29.2312851123
  H         2.2588670570        8.6848554984       30.5165363575
  C         3.5403340455       10.2245046637       31.0963664423
  H        -4.1922050090        8.4572979330       27.0952222551
  H        -4.4603706462        9.5048439137       28.4961508972
  C        -5.3432170157       10.3419081380       26.8173423421
  N        -1.1839561018       16.4268780923       30.6033732552
  C        -1.8313658326       16.2278094272       32.7824826483
  C        -2.1599623752       14.0529073308       33.9862058678
  H        -2.0700196095       12.3270507670       32.6900182634
  H         5.8393822922       13.9873006434       17.7771909930
  H         7.5936476353       14.0026866567       18.2064275513
  H         6.9927216463       12.4387078900       17.5353846775
  S         3.8948804953        9.4028527104       14.2350339660
  C         3.7913782783        6.8950714093       13.6071707992
  H         3.6112772837       11.2613616221       30.9353579027
  H         3.0115737518       10.0954437086       32.0103039360
  C         5.0543362654        9.8387742621       31.3583240667
  H        -5.0052182846       11.2390288285       26.2320230383
  H        -5.9260683659       10.6151873681       27.7301018406
  C        -6.2689697167        9.5979265945       25.8861997617
  S        -1.1703566096       18.0243910827       31.2031051731
  N        -1.7280293819       17.6251164580       32.6535399193
  C        -2.1760536960       15.5633880309       34.0123736128
  H        -2.6131492137       13.6002756045       34.8470318133
  C         4.1390453360        8.8825065363       12.6076556178
  N         4.0368922200        7.5295093326       12.4450247964
  O         3.5985620246        5.6447123088       13.7319754243
  H         5.4267718323       10.5035686401       32.1468785592
  H         5.6186946729       10.1188142936       30.4600406626
  C         5.1325441507        8.3705628486       31.7563291776
  H        -5.7162305632        9.1542945399       25.0434457290
  H        -6.7697325622        8.7668984470       26.4902189377
  C        -7.3227155172       10.6143364191       25.3860037020
  C        -2.3788333687       16.3577854176       35.1637738363
  S         4.7652497923        9.7494412574       11.2194529993
  C         3.9737125096        6.7725058062       11.2617776028
  H         5.7146107313        8.4630556302       32.7090606751
  H         4.2627581690        7.8205099877       31.9405342541
  C         5.7326154074        7.4728709490       30.7350841076
  H        -7.0334513559       10.8248855906       24.3235885037
  H        -7.3472945260       11.4947962983       26.0946750761
  C        -8.6978872057       10.0338893779       25.3115378329
  H        -2.1211396879       17.3636413647       35.0742575516
  C        -2.9988933295       16.0659887240       36.3935353768
  H         4.3652995826        7.3186535729       10.4233684700
  H         4.6433494510        5.9836974406       11.0525622739
  C         2.5703740881        6.4721433934       10.7387169717
  H         6.6973096945        7.8658876652       30.3316229837
  H         5.0959985211        7.1980672304       29.9292237013
  C         6.2706542663        6.1627779857       31.3247446428
  H        -9.3574939194       10.7929815305       24.8063898448
  H        -8.9941465448        9.0368546084       24.7061265704
  C        -9.3893395674        9.9684185446       26.6711182679
  S        -3.5346802190       14.4943289888       36.9170422842
  C        -3.1594773336       17.0477541925       37.4938546616
  H         2.4006007664        6.3271448492        9.7211721014
  H         2.2751259501        5.4887316511       11.1683189388
  H         1.8448137311        7.1567465363       11.1990256824
  H         5.6418802610        5.3988443223       31.6404393392
  H         6.7027589730        6.5282414343       32.2404721370
  H         7.0907840421        5.7897699631       30.7676726799
  H        -8.6569956996        9.8852840444       27.4945021516
  H       -10.0860166603        9.1844983820       26.7261292471
  H        -9.9030225041       10.8310778049       26.9564389354
  C        -3.8523375937       15.1621932020       38.5064254404
  N        -3.7609566984       16.4986186746       38.4979467391
  O        -2.9461800947       18.2084157699       37.3155303755
  S        -4.8253248021       14.3217342277       39.6719125149
  C        -3.8188100543       17.3230574122       39.7518722162
  H        -4.0802927730       18.3931721840       39.5381725759
  H        -4.5509450734       16.8263930619       40.4133388989
  C        -2.4568285626       17.3060717076       40.4799456241
  H        -2.1933663306       16.2777807271       40.6114229671
  H        -1.9467802222       17.8983839651       39.8197107917
  H        -2.3290949715       17.7830651999       41.4626135702
  H         7.5619544457       11.2752789146        2.8125919953
  C         8.0430503513       10.3492485911        2.9570975778
  H         7.2129232817        9.7442977311        3.0821668772
  C         8.8394838489       10.3231284992        4.2840115494
  C         8.9250666941       10.1279890773        1.7047949802
  C         7.9818957640       10.6798048723        5.5763965192
  H         9.3664690991        9.4679052039        4.4496112243
  H         9.5008229548       11.0821105158        4.0484910226
  H         8.3306608565       10.1261319947        0.7668099043
  H         9.7852715108        9.4826946256        1.8045482116
  H         9.3412461942       11.1478269972        1.5702139173
  C         7.3358077929        9.4391848517        6.1531009590
  H         8.7103931296       11.1569488781        6.1873302561
  H         7.3243174677       11.5016611464        5.3478383210
  C         6.8140687803        9.5111524255        7.5688825126
  H         8.0825381107        8.6881859645        6.3648684333
  H         6.6669122538        8.9962430576        5.4649633321
  C         5.6085707050       10.4476361961        7.7513030770
  H         7.5589235269        9.7799627558        8.4151476042
  H         6.4659682426        8.5578217876        8.0739231662
  C         4.3567520199        9.8348469611        7.0220983312
  H         5.3986308955       10.6595587667        8.7470550133
  H         5.9582701253       11.3957932258        7.3838852164
  C         2.9696275806       10.6897933526        7.0474993450
  H         4.1211304772        8.9186859820        7.4984222474
  H         4.7158013924        9.5326067034        5.9275479791
  C         3.3927199222       12.0068868552        6.4342165675
  C         2.4736575979       11.3562977450        8.2859843265
  C         1.8174273360       10.1526640461        6.2325673426
  C         3.0809595034       13.1467415423        7.1960314261
  C         3.8551254640       12.3801544774        5.1199239320
  C         2.4961172964       12.7027840956        8.4104212242
  C         2.0314407531       10.7446227379        9.4681322401
  H         2.3531371885        9.6950373734        5.3962178683
  H         1.5410409636        9.1711332569        6.5773298980
  C         0.6343513688       11.0610202018        5.9503084202
  S         3.2000751213       14.6150654924        6.3612070840
  C         3.8843171540       13.7117562676        4.9459302739
  H         4.3046317955       11.6407684364        4.5251692180
  C         1.9874115805       13.3107414125        9.4964835835
  H         2.1680047148        9.6437509117        9.5707302832
  C         1.5285771753       11.3707341738       10.6074321179
  H         0.9035073322       11.9875491762        5.4924513529
  H         0.0992538093       11.3998554927        6.8028004385
  C        -0.4850691877       10.5179128103        5.0416721043
  C         4.3687449519       14.4411443027        3.6876485858
  C         1.4853172233       12.7439676803       10.6757323329
  H         1.9149977189       14.4194772970        9.4485312209
  C         1.0500907039       10.8992465954       11.8480889000
  H        -1.3954058652       10.9828806178        5.0164870300
  H        -0.6727272037        9.3974780806        5.2321432260
  C        -0.0183546764       10.7286077479        3.5757639384
  C         4.2365472470       15.8931706200        3.3621005915
  C         4.9739295857       13.5395484678        2.6990477421
  C         0.9563819615       13.3747857395       11.9067658633
  C         0.6622148460       12.0227028257       12.6191972285
  S         0.8821925573        9.4389004202       12.6401815762
  H         1.0936907180       10.7502257806        3.5568609054
  H        -0.3815125813       11.6904922745        3.2895220179
  C        -0.4102259941        9.6870691163        2.5651491346
  N         3.8039545260       16.8306779292        4.2113882019
  C         4.4823380180       16.3495623371        2.0502887408
  C         5.1460934930       13.9994824994        1.3442523161
  H         5.1516051368       12.5514330077        2.8696144394
  C        -0.4079859366       14.1027622733       11.8559044016
  C         2.0372107087       14.2050162079       12.6858345037
  C         0.1763423901       11.6119753049       13.8927341281
  C         0.3180074404       10.2867816312       14.0754021160
  H        -0.0167694278        8.7090723459        2.7464860260
  H        -1.5174252236        9.6141707306        2.4259994258
  C         0.0522910494       10.0655381991        1.0794558911
  S         3.8087754373       18.2512634914        3.5237930541
  N         4.3132081179       17.7273995072        2.0132128436
  C         4.9498375407       15.4407228973        1.0159271677
  H         5.5553392663       13.3601954389        0.6784464066
  H        -0.2943731181       15.0923544546       11.3932804052
  H        -0.6988850018       14.3954822580       12.8235588404
  C        -1.4815849891       13.3649324628       11.1291243360
  H         2.5453531229       14.6804585730       11.9583578577
  H         1.5987681448       14.9065377595       13.3396969800
  C         3.1169609610       13.3061592777       13.2102136010
  H        -0.1365616526       12.2748936230       14.7397867238
  C         0.1289959181        9.4207625964       15.3228128198
  H         1.0626694297       10.2713348569        1.1731259870
  H        -0.3323735160       11.0851908855        0.8524282006
  C        -0.2856801525        8.9369511025        0.1690095485
  C         5.1569644469       16.0612819715       -0.2089363820
  H        -1.1511739651       12.9354778044       10.1666761972
  H        -1.8196753986       12.4714098535       11.8105181336
  C        -2.6783632719       14.2677479347       10.7615131521
  H         3.4723109108       12.6007861608       12.5121618956
  H         2.7236956890       12.6241546168       13.9694200630
  C         4.2443722536       14.1182083827       13.8609859386
  C         0.1383602069        7.9665497353       15.4813549052
  C        -0.1670484675       10.1889076471       16.5618020010
  H         0.5568411505        8.4308786022       -0.0782251353
  H        -1.0293421910        8.3117109332        0.4848521650
  C        -0.7423228031        9.4176771152       -1.1868493657
  H         4.9717889221       17.0535558263       -0.3751669485
  C         5.4959223338       15.5602562772       -1.4037499774
  H        -2.5469905977       14.8622175286        9.8850721430
  H        -2.7783343665       15.0682273006       11.5393861643
  C        -3.9089893267       13.4934411071       10.4749213700
  H         4.4427691309       14.9251401369       13.1505212600
  H         3.8733847443       14.5502768041       14.7624276207
  C         5.5239350707       13.3241127566       14.0757848298
  N         0.4354386786        7.1468324262       14.5392446083
  C        -0.3800625360        7.3111445556       16.6296359344
  C        -0.5662138482        9.4925760272       17.7481192807
  H        -0.1724159350       11.2350867327       16.5395692499
  H        -1.4465933320       10.2475079890       -1.0169829680
  H        -1.2122767256        8.5805220057       -1.7174102858
  H         0.0426846287        9.6503227148       -1.9103441017
  S         5.7352080366       13.9300492558       -1.8772995527
  C         5.5104697672       16.5083760275       -2.4884424752
  H        -3.4907518807       12.5925392823        9.9836865067
  H        -4.3405394214       13.0729142241       11.4255643388
  C        -4.9270468469       14.1966895985        9.6296026522
  H         5.5160071073       12.4537267829       13.4687497088
  H         5.5552222306       13.0596717393       15.2013457899
  C         6.7781863435       14.0747501044       13.7338402421
  S         0.1446315431        5.5703691471       14.9890013326
  N        -0.4125367576        5.9271721654       16.4876657049
  C        -0.6680000558        8.0478674081       17.8381196230
  H        -0.6548635581       10.1646189401       18.5793576851
  C         5.9889109211       14.5537094942       -3.4754002096
  N         5.9385386108       15.9175259765       -3.6424465013
  O         5.5403152910       17.7499316307       -2.2728642637
  H        -5.2536634816       15.0427379654       10.3006877685
  H        -4.3194991753       14.6099432537        8.7562229396
  C        -6.1119095955       13.1980283338        9.2537498668
  H         7.4183183857       13.4479188093       14.3137854601
  H         6.9739138395       14.1032336423       12.7312919246
  C         6.8846685355       15.4062564006       14.4100566563
  C        -1.0912883850        7.3712214848       19.0039534579
  S         6.4318315689       13.6353156433       -4.9453425400
  C         6.0574753832       16.5611319647       -4.9615445090
  H        -5.8157005075       12.7477496649        8.2907784207
  H        -6.2452357975       12.5595904484       10.1359584401
  C        -7.3556730824       13.8566525211        8.8766343499
  H         6.9519640840       15.0741180921       15.4406217399
  H         6.1236782152       16.1506454020       14.3858902042
  C         8.0917180168       16.2198093010       13.9382670338
  H        -0.8164720385        6.2478152239       19.0739889501
  C        -1.6723684804        7.8487744692       20.1687579411
  H         6.7470346449       16.0618101140       -5.4920049018
  H         6.4881684947       17.5764165011       -4.7160154465
  C         4.6099510229       16.5654104460       -5.6075597659
  H        -7.8646601282       13.4259592541        8.0416331117
  H        -7.1216733277       14.9233109737        8.5545985558
  C        -8.2155654830       13.7595577987       10.0921316604
  H         8.9821158023       15.7544488045       13.9678860664
  H         8.0672179504       16.4658949507       12.8161102092
  C         8.2271275747       17.5595496652       14.5792674556
  S        -2.4039869559        9.3866670011       20.5321489435
  C        -1.6938224444        6.9385743938       21.3216294203
  H         3.8689365708       16.3561060159       -4.7657394365
  H         4.4376881355       15.9403892867       -6.4846543956
  H         4.5435850950       17.6246170667       -5.8328022489
  H        -7.5825812076       14.0789889283       10.8181188151
  H        -9.0333988425       14.4861169281       10.1267756547
  H        -8.6561129623       12.7966076701       10.4381856194
  H         7.7309748070       17.6354588539       15.4845405747
  H         9.3272615937       17.7369810061       14.6236282907
  H         7.7210956555       18.3140542827       14.0409649509
  C        -2.6600966831        8.8967110837       22.1286465760
  N        -2.2956845369        7.6191699262       22.3807582740
  O        -1.2366584973        5.7841513303       21.3967972324
  S        -3.4858065921        9.7867991895       23.3424978648
  C        -2.5238216746        6.8611755600       23.6395892746
  H        -2.7145670690        5.8004353561       23.4455823110
  H        -3.5008415541        7.3028198421       23.9086388637
  C        -1.3052791157        6.9738756744       24.4690566079
  H        -1.4611359633        6.3955999770       25.3874015031
  H        -1.1972217628        8.0738349962       24.6572402381
  H        -0.4134848546        6.5765795031       23.8972602893
