352
i =
  H        -3.5922704143       15.3046232576       16.2473228203
  C        -3.4572693372       14.2256410884       16.4096951779
  H        -4.4508985954       13.9283576187       16.8261230512
  C        -2.4075142337       13.9836487611       17.4646831452
  C        -3.0286272216       13.7543617117       15.0525962386
  C        -2.9714738053       13.9002616017       18.9718497911
  H        -1.9443207616       13.0225165732       17.3338442630
  H        -1.4945271384       14.7013556654       17.5162985613
  H        -3.7715200921       14.1710738002       14.4415648258
  H        -1.9708642917       13.9231501828       14.8661175142
  H        -3.1168615167       12.7078658659       14.8454167801
  C        -1.7260721409       14.0004642817       19.8301597883
  H        -3.4756263160       12.8918241786       18.9060882142
  H        -3.8237458794       14.6775558724       19.1399322054
  C        -2.0500257649       13.8967619000       21.3062187617
  H        -0.9989470768       13.1810764886       19.6661177093
  H        -1.3040339956       15.0524866118       19.7311542510
  C        -1.0150763411       13.0766663536       22.1485873226
  H        -3.0645059088       13.4052636997       21.3035837810
  H        -2.3328188636       14.7831979966       21.9577234405
  C         0.3009475509       13.8182590870       22.3669855180
  H        -1.3884187109       12.7399138463       23.1002065250
  H        -0.7635198658       12.1788400839       21.5838708842
  C         1.3636116461       13.1148233591       23.2655824255
  H         0.6551974351       13.8806872240       21.3278715430
  H         0.5033171341       14.9384548023       22.7065291592
  C         1.6366865099       11.7360432595       22.5266377023
  C         0.9435252363       12.3557275822       24.4205858181
  C         2.6168413669       14.0245094997       23.5563583088
  C         1.3493073787       10.6084314582       23.3042843619
  C         2.0624818396       11.4134674828       21.2232536886
  C         0.8701359706       11.0346668656       24.4823887686
  C         0.4597825283       12.9143169228       25.6503202014
  H         2.9277952828       14.4642406168       22.6733234000
  H         2.4298722562       14.8115311855       24.2440190239
  C         3.7762905943       13.2327548767       24.0856804001
  S         1.6163410258        9.0822516187       22.4905893002
  C         2.1150458589        9.9596692771       21.1054408351
  H         2.2413793134       12.2847530655       20.6157673275
  C         0.3224104796       10.4062399387       25.6236708761
  H         0.5767686257       13.9442334118       25.6954260067
  C        -0.1013463882       12.2897704140       26.8102191365
  H         3.9454992528       12.4150899036       23.5002796889
  H         3.5533793830       12.7613448863       24.9614793510
  C         4.8462445306       14.2608422652       24.3140858216
  C         2.4711234750        9.3196285100       19.7930835113
  C        -0.1243847013       10.9427506544       26.8372332076
  H         0.2804881017        9.3568773241       25.6457904731
  C        -0.5403649293       12.6724464658       28.0965130932
  H         5.5069253813       13.9214063538       25.1951106393
  H         4.4763572831       15.3522648317       24.5348162858
  C         5.7527899775       14.6002783040       23.1564855090
  C         2.3038818514        7.8959708797       19.5654968252
  C         3.1239799756       10.0316947482       18.6927035035
  C        -0.5341285366       10.2175095006       28.1421263779
  C        -0.7753039551       11.5374905419       28.8432266211
  S        -0.8089107037       14.2117591121       28.9311973754
  H         6.3959151054       15.5135782369       23.2603338678
  H         5.2479654857       14.5050145340       22.1416233574
  C         6.6496312185       13.3667386787       22.8017350665
  N         1.8399084565        6.9979705731       20.5238103959
  C         2.6679336836        7.2340147049       18.3532599024
  C         3.1805186130        9.5030968114       17.4202655117
  H         3.4343147097       11.0101094375       18.8893600626
  C         0.6628020415        9.3992505529       28.7495316182
  C        -1.8711083899        9.4265265324       28.0152510074
  C        -1.1767393687       11.9214818916       30.1369110195
  C        -1.3354976921       13.3007220270       30.2282634045
  H         7.1855432061       13.0316094794       23.6526983994
  H         6.1170517527       12.4276407544       22.5280242099
  C         7.4989229444       13.5865612913       21.5693333206
  S         1.9786683859        5.4809549543       19.9183385157
  N         2.5116934819        5.9058342700       18.3672092973
  C         3.0657530286        8.0245324632       17.1816741531
  H         3.4484295715       10.1232545557       16.5564298024
  H         1.2062595233        8.8227881379       27.9685385417
  H         0.3598609941        8.7581190134       29.5921060526
  C         1.7123740972       10.2507545685       29.4286900457
  H        -1.7614648385        8.5323990923       27.3056863596
  H        -2.2092263701        9.0606640598       29.0194376022
  C        -3.0168813307       10.2064390588       27.4323033116
  H        -1.3608370484       11.1531963663       30.8565515636
  C        -1.8071321636       13.9586535589       31.5929987410
  H         8.0242123723       12.7048302450       21.6060555190
  H         8.0909377696       14.4701425301       21.8553171674
  C         6.6721480654       13.8390323620       20.3380292634
  C         3.2768172974        7.3183496152       15.9226399339
  H         2.2315485877       10.9845345944       28.7777468381
  H         1.2769843566       10.8888680023       30.2297742660
  C         2.7432422440        9.4692092981       30.0959240928
  H        -2.6195828698       10.7927753726       26.5488274179
  H        -3.1920628871       10.8754868077       28.2241929057
  C        -4.2953443680        9.3760034106       27.1937915225
  C        -1.8651749643       15.3589821562       31.7681103468
  C        -2.1378966277       13.1448562247       32.8075797528
  H         5.8964453422       13.0989703598       20.3077312034
  H         6.1386187895       14.7936377538       20.3379168378
  C         7.4380336784       13.8249396969       18.9935984050
  H         2.8675452494        6.3272016098       16.0032293861
  C         3.6343941273        7.7804433813       14.6135190334
  H         3.1684526947        8.8053961146       29.2775125627
  H         2.3377820972        8.9397385003       31.0220871907
  C         4.0632461416       10.2220193023       30.5923750633
  H        -4.0659812541        8.6696281163       26.4689124225
  H        -4.5743046797        8.9510890540       28.0635606381
  C        -5.2670597928       10.3903515689       26.6552488591
  N        -1.7159376014       16.3625773097       30.7979517778
  C        -2.2210940312       15.9329013209       32.9747392344
  C        -2.3661786106       13.7434278852       34.0696931721
  H        -2.2954498081       12.1204336057       32.7140010190
  H         6.8890020869       14.1788913967       18.1992381787
  H         8.3167639103       14.5579703260       19.1203958052
  H         7.7378637466       12.7831758155       18.7574280704
  S         4.1141592214        9.3664374712       14.2540618128
  C         3.5864071744        6.7696212186       13.5778984911
  H         4.1201598406       11.1802416234       30.0709494932
  H         3.9115392628       10.3854177565       31.6246898199
  C         5.2696142965        9.3385155042       30.4270740587
  H        -4.8012034020       11.2489609392       26.0124304143
  H        -5.6633831586       11.0249844862       27.4274889365
  C        -6.4865418331        9.7806077804       25.8698154307
  S        -1.9264631240       17.8424884985       31.5605824557
  N        -2.2041171021       17.2712168436       33.0346983210
  C        -2.5316913078       15.2006918061       34.2295068883
  H        -2.6476779380       13.0940710442       34.7781347706
  C         4.2567147177        8.6694327445       12.6478144716
  N         4.0584333226        7.3526383676       12.4697784414
  O         3.3521719480        5.5235104372       13.6592655961
  H         6.1216268514        9.9634872753       30.7104045807
  H         5.6806948813        9.1638825342       29.4169796789
  C         5.1989512175        8.0391743672       31.2732231254
  H        -5.9473748022        9.0977954823       25.2002808307
  H        -7.0164916792        9.1334461890       26.5431627844
  C        -7.2897776732       10.6868022103       25.0675118709
  C        -2.9138613075       15.9178180546       35.4173031118
  S         4.7978700441        9.5171870783       11.2458315647
  C         4.0843009747        6.6185011806       11.1701739628
  H         5.6215630517        8.2064408813       32.3033523995
  H         4.2916183721        7.6925891939       31.4037239364
  C         6.0906518390        6.8501729287       30.7048647966
  H        -6.7621464632       10.8553588396       24.1257856185
  H        -7.1471455039       11.6491435735       25.8137530422
  C        -8.6770719858       10.1906038317       24.9386347684
  H        -2.8221148221       16.9840986575       35.3750702120
  C        -3.4785301717       15.4793765023       36.5451558326
  H         5.0308761561        6.9011473100       10.5666959875
  H         4.2946175427        5.4661139142       11.3659840446
  C         2.7166840605        6.7799085740       10.3775709834
  H         7.0467155936        7.2911646419       30.3405333580
  H         5.5065420046        6.5138026018       29.7899618129
  C         6.3589585293        5.8359275686       31.8097724109
  H        -9.1455510386       10.7160154917       24.2378016099
  H        -8.7231618809        9.2384457031       24.6220028158
  C        -9.5743753531       10.2701452706       26.1712905650
  S        -3.9964906930       13.8987775299       36.8069107026
  C        -3.7447810330       16.4891922751       37.6993574618
  H         1.8966523864        7.2281513260       10.9823822090
  H         3.0434553893        7.5671337357        9.6368897589
  H         2.5265920263        5.8312356085        9.6464103084
  H         5.6153364390        5.7336797170       32.6799439901
  H         7.2354245413        6.2216495436       32.4607102410
  H         6.4725594925        4.7066535839       31.3853887148
  H        -9.2921998669        9.5623773103       26.9353009244
  H       -10.5609570240       10.0703209335       25.7597354137
  H        -9.5775735368       11.2826500314       26.5748468919
  C        -4.4940638226       14.4690345171       38.4361803587
  N        -4.2733513126       15.8134092494       38.6974898987
  O        -3.3446357020       17.6267937450       37.6850985315
  S        -5.1953653123       13.5150569379       39.7491947829
  C        -4.3814243024       16.4535532073       39.9703996142
  H        -4.5493704498       17.5294358394       40.0447130991
  H        -5.1819062945       15.9463022989       40.4589427364
  C        -3.0022966899       16.1843508829       40.7272841418
  H        -2.8914764758       15.1066321148       40.7188637852
  H        -2.1442365681       16.5145550174       40.2565375252
  H        -3.2834031124       16.2801584504       41.8287126683
  H         7.4921916561       10.4694049765        4.0017853107
  C         8.1958510807        9.7118103748        3.8758421184
  H         7.8675915296        8.7562976793        3.9812676713
  C         9.2438668754        9.9939322469        5.0190734504
  C         8.9001338593        9.8191815107        2.5050800982
  C         8.4606441201       10.3877164550        6.3151440307
  H         9.7795383164        9.1743700262        5.2152465029
  H         9.7964271981       10.8391198286        4.9246679072
  H         8.2565510512        9.8130128969        1.6406706388
  H         9.8821554869        9.2168877658        2.4730343547
  H         9.2535718269       10.8307354396        2.4381605957
  C         7.6750986662        9.3158692852        6.9121375678
  H         9.2760771725       10.8535277430        6.8750861090
  H         7.8509249740       11.1461973323        6.0663101311
  C         6.8159588369        9.6973871926        8.1105266361
  H         8.2894880632        8.5219585479        7.0760784549
  H         6.9760738281        9.0212169996        6.1426637317
  C         5.7136548369       10.6569578940        7.7544184564
  H         7.3253597506       10.1661657861        8.8951993473
  H         6.5905335135        8.8313315998        8.5993341851
  C         4.4795547368        9.8720177239        7.2268119594
  H         5.3663711751       11.2631764038        8.7144328669
  H         6.0405851030       11.4399571342        7.0747192241
  C         3.2074172681       10.6838701157        7.0006805879
  H         4.2641486826        8.9172970883        7.7963723235
  H         4.7724302840        9.5621554996        6.1967513337
  C         3.4442089491       12.0005392816        6.2802120700
  C         2.8175510904       11.4339641065        8.2196601400
  C         2.1388273970        9.8565921473        6.2652808471
  C         3.3871324558       13.0965383532        7.1442146940
  C         3.8228258556       12.3556090686        4.9619933788
  C         2.8413573446       12.7341459935        8.3270777199
  C         2.3680198178       10.7908620739        9.4034928025
  H         2.4871043603        9.6326677500        5.3255050383
  H         1.8977267357        8.9361710965        6.6924305610
  C         0.8250684893       10.7001463428        5.9912287237
  S         3.5955150942       14.5907967148        6.3123437802
  C         3.8973074432       13.8203497370        4.8656361024
  H         3.9271826528       11.5769749361        4.3279006027
  C         2.4052628201       13.3306578929        9.4788802921
  H         2.2192960513        9.7635230728        9.2727524035
  C         1.9120882888       11.3988004353       10.5461130682
  H         1.0929222130       11.5721119794        5.4983082146
  H         0.3914931619       10.9073550066        6.9358025826
  C        -0.3053785492       10.0689782148        5.1960277744
  C         4.2658103144       14.4180766372        3.5169158729
  C         1.8511695595       12.7329006911       10.5820940873
  H         2.5009348308       14.3577028265        9.5873064630
  C         1.2884942362       11.0439627391       11.7151297142
  H        -1.1281468733       10.7971755198        5.2394706081
  H        -0.7121958815        9.0492647793        5.6669163878
  C         0.1565510361        9.8274591674        3.8372322856
  C         4.0989978486       15.8323411429        3.3035407545
  C         4.8725193398       13.6768423044        2.3668163092
  C         1.3337864797       13.4578468800       11.7763953834
  C         1.0067731612       12.1694544502       12.4306483402
  S         0.9238163043        9.5255182754       12.5032824923
  H         0.5692969809        8.8577718893        4.0685439071
  H         0.9086100878       10.4414685910        3.4511937188
  C        -0.9459708138        9.7770720280        2.8390853995
  N         3.7810182020       16.7524949100        4.2609248821
  C         4.5216578544       16.4475221671        2.1438943178
  C         5.0776949295       14.2622955410        1.1163025635
  H         5.0467302248       12.6235894840        2.4187413408
  C         0.0437575619       14.4033738933       11.4966210680
  C         2.5239064593       14.1939522814       12.4628825942
  C         0.5248858410       11.8595658535       13.7631565382
  C         0.5103832767       10.4053301426       13.9382518061
  H        -1.8293591365        9.2198119309        3.1198518961
  H        -1.2787903581       10.7750259616        2.6185808561
  C        -0.4153584559        9.3661130114        1.4287503253
  S         3.8074887445       18.2453658058        3.6894758196
  N         4.2525013962       17.7660276195        2.2080805728
  C         4.9418049678       15.7510223518        0.9528735634
  H         5.4929415009       13.6547532726        0.3895626315
  H         0.3071977537       15.2598933955       10.7955161642
  H        -0.2162285482       14.8849000286       12.6159588055
  C        -1.1362326491       13.6520341695       11.0785934446
  H         3.2282452239       14.8610067880       11.9141847446
  H         1.9729624414       14.8939334328       13.1825371554
  C         3.4157513386       13.4164880376       13.3978290166
  H         0.3905744361       12.7414473256       14.3808871584
  C         0.1936705130        9.7303895148       15.2536910253
  H        -0.2416980121        8.3452246971        1.4170575944
  H         0.4868781618        9.8719380234        0.9474310399
  C        -1.4330885083        9.4672571808        0.2774180640
  C         5.1640079948       16.5353700336       -0.2199965501
  H        -0.9948275196       12.7736983495       10.4855316884
  H        -1.6500901088       13.2462632776       11.9402814401
  C        -2.3116226583       14.4302778777       10.5319352702
  H         3.9888401451       12.7583978741       12.7816329800
  H         3.0097626817       12.9114377110       14.2061384688
  C         4.5000993389       14.3110128541       14.0487716036
  C         0.1440617471        8.3459122071       15.4585766820
  C        -0.0902564573       10.5121515684       16.4873878822
  H        -2.3716397632        8.8000415105        0.2877682175
  H        -1.8685777438       10.4971366785        0.3427494854
  C        -0.7151633515        9.2298524668       -1.0953240912
  H         4.9612348345       17.5450747491       -0.1501514586
  C         5.4308726606       16.1466383095       -1.5078620263
  H        -2.0167611144       15.0800203831        9.6573150732
  H        -2.9362990182       14.8998123244       11.4314483378
  C        -3.3839397304       13.3754667541        9.9708505022
  H         5.1388105089       14.7005168949       13.2519873307
  H         4.0722271441       15.0904783035       14.6266211791
  C         5.4442884651       13.5512956475       15.0715180713
  N         0.2534437563        7.4634179561       14.4057836172
  C        -0.2518867260        7.7208385154       16.6208694325
  C        -0.4143373920        9.9352473076       17.7616470642
  H        -0.0821775016       11.6039081721       16.6007080045
  H        -1.3990552397        9.1796318696       -1.8342849848
  H         0.0639193165        8.4103611715       -1.1011774791
  H        -0.1723427397       10.0278316526       -1.4772811181
  S         5.7845095545       14.5111286609       -2.0112021285
  C         5.6054981847       17.1813121526       -2.5588767758
  H        -2.9674822267       12.7966442020        9.2085292452
  H        -3.6448146879       12.6732454827       10.6556914877
  C        -4.6896030305       14.1190472814        9.5109737919
  H         5.3130699478       12.4738798395       14.8350469741
  H         5.1210549783       13.7926947970       16.0315289965
  C         6.8032390823       14.0308847342       14.8031341544
  S        -0.0365251665        5.9515553245       14.9944776411
  N        -0.3674347019        6.3589130895       16.5257338154
  C        -0.6029093625        8.4580070316       17.8468029329
  H        -0.4418350306       10.5664003340       18.5519773763
  C         5.9855623628       15.1119332049       -3.6110909725
  N         5.9350720599       16.5129765411       -3.6969601284
  O         5.4132567762       18.3859634138       -2.3935242179
  H        -5.2741026128       14.5374703114       10.3710567732
  H        -4.5488327126       15.0522408213        9.0189916512
  C        -5.4787541813       13.3104900570        8.5607217356
  H         7.5219976329       13.3440548208       15.4546552724
  H         7.2238820904       13.6817278396       13.7996931328
  C         6.9563363611       15.4652923932       15.1447799781
  C        -0.9171706128        7.6435862497       19.0063814238
  S         6.5680493436       14.2367502913       -4.9723623239
  C         5.9822444868       17.1823879777       -4.9471333921
  H        -5.1529122470       13.4374181357        7.5454837912
  H        -5.3512350892       12.2123975599        8.6749252298
  C        -6.9155050436       13.8198843385        8.5606602745
  H         7.3746675040       15.5580991559       16.0862261681
  H         6.0023940774       15.8487936694       15.3015945178
  C         7.6639101618       16.2748448266       14.0885943502
  H        -0.9217468042        6.4618280238       18.8528519414
  C        -1.5337677367        8.0228808688       20.1774179115
  H         6.8365985244       16.6674178061       -5.5671197594
  H         6.2293689334       18.2294423629       -4.7935072986
  C         4.5689083747       17.2702209459       -5.6189617948
  H        -7.1932540569       13.5976018362        7.4885644828
  H        -7.0263424555       14.7731026043        8.8234133294
  C        -7.6846997284       13.0398193091        9.5738273198
  H         8.8397296087       15.9031773233       14.0695940710
  H         7.4744433524       15.9299887711       12.9737261931
  C         7.5459193740       17.8495785791       14.2550306695
  S        -2.0129921413        9.5923118549       20.5945093589
  C        -1.5656730259        6.9560249407       21.1751855144
  H         3.9429344105       16.4855480686       -5.0535795738
  H         4.6393292383       16.9309865241       -6.6818372164
  H         4.1519103943       18.3249501211       -5.7109982085
  H        -8.7686128378       13.0679588737        9.2276711764
  H        -7.3239323910       12.0813391130        9.6411643280
  H        -7.6304122471       13.3598506150       10.5825305671
  H         8.2950011268       18.6318807390       13.6948813387
  H         6.4638320957       18.1988738550       14.0663568299
  H         7.9037547882       18.1682780901       15.3434765274
  C        -2.2468512097        8.8977764679       22.2288032855
  N        -2.2044443184        7.4879108922       22.2773292491
  O        -1.2904149490        5.8009859728       21.0115618727
  S        -2.8257421384        9.6218759915       23.6006812356
  C        -2.4493731352        6.7145889718       23.4343911535
  H        -2.6905242250        5.6394818718       23.2417202608
  H        -3.4622281929        7.0211042627       23.7550767755
  C        -1.3734353062        6.7619308564       24.5090324485
  H        -0.3780218574        6.6851341559       24.1574808925
  H        -1.6235197995        5.9942273580       25.1182939038
  H        -1.6552211883        7.7204164869       25.0899990931
