352
i =
  H        -4.4128775015       13.5406838421       16.1871884034
  C        -3.3015369023       13.7424110997       16.1390305351
  H        -2.7619436453       12.8717875755       16.3761568254
  C        -2.9194128580       14.7327367675       17.1794379484
  C        -2.8644776142       14.0193913662       14.6845161166
  C        -3.4388202549       14.2097701724       18.5003686915
  H        -1.8336918924       14.9099793666       17.0912734403
  H        -3.3460813072       15.7038059182       16.9869629401
  H        -3.5344368729       13.4557139840       14.0530121646
  H        -3.1024343373       15.0146649643       14.4480104943
  H        -1.8442057927       13.7438949755       14.4558099811
  C        -2.2863847495       14.1894963620       19.4456036020
  H        -3.8803640121       13.2235631612       18.3502036914
  H        -4.1713983706       14.9720260199       18.8907869676
  C        -2.6395555856       13.8112192080       20.9306897511
  H        -1.4546867309       13.6114043698       19.1103306727
  H        -2.1363215690       15.2832725726       19.5342395765
  C        -1.6456004787       12.9816593626       21.6895950300
  H        -3.6324842809       13.3182361951       20.8405292115
  H        -2.7027568399       14.7326959671       21.4802981350
  C        -0.4095354688       13.9138008803       22.0776340044
  H        -2.1333838732       12.3495558937       22.4596881199
  H        -1.2333169936       12.2111151727       21.0249931287
  C         0.8239567020       13.2403600243       22.8548982004
  H        -0.0294244449       14.2723019445       21.1904798018
  H        -0.7092616423       14.8366900001       22.6944609486
  C         1.2630649540       11.9674118753       22.1645250241
  C         0.3690363955       12.5087929118       24.1280940535
  C         2.0344769889       14.2062713222       23.0980368368
  C         1.2306504047       10.8749106812       23.0391263947
  C         1.7900602749       11.5303855746       20.9395115547
  C         0.6060041147       11.1860983695       24.1979048136
  C        -0.1912181461       13.0872418064       25.2473507812
  H         2.2682470933       14.6796039172       22.1452693568
  H         1.8732907040       14.9722878215       23.9372253003
  C         3.2950952936       13.5070413658       23.7378383512
  S         1.9107137649        9.3957725735       22.3878335828
  C         2.2198043942       10.2371560174       20.9246486100
  H         1.8249935726       12.1855213280       20.1141621603
  C         0.3908964387       10.5492940272       25.3821214265
  H        -0.3577215049       14.1600764164       25.3123248984
  C        -0.4661404121       12.3959731790       26.4122987325
  H         3.6735116573       12.8270359347       22.9674508571
  H         2.8948665049       12.9675184430       24.5985934374
  C         4.4787011768       14.3893073479       24.0568583036
  C         2.6623558342        9.4641315227       19.7378281080
  C        -0.1925458354       11.1055735904       26.4933663876
  H         0.6823644289        9.5491040865       25.5173023241
  C        -0.9698657280       12.7448439648       27.6216533857
  H         5.0956644913       13.8778518971       24.7658108018
  H         4.1212473132       15.3090619042       24.5505332618
  C         5.2097570550       14.8704262785       22.8240469570
  C         2.5677903843        8.0803153050       19.5175920445
  C         3.2141485441       10.2449843393       18.5836532303
  C        -0.4268024261       10.4258200085       27.8286168086
  C        -0.9799013248       11.6958284401       28.4889724664
  S        -1.4400608350       14.2013316387       28.4611210040
  H         6.0208137420       15.5687996371       23.2442072348
  H         4.5999958812       15.5339695278       22.1992500628
  C         5.9732976246       13.7953364904       22.0567103106
  N         2.1241395350        7.1500302765       20.4838286871
  C         2.8515211397        7.4541336446       18.3114099829
  C         3.4828669930        9.6637662445       17.3753667488
  H         3.1748326368       11.3273209459       18.5913341405
  C         0.8149217183        9.8147397833       28.5762969574
  C        -1.6540760581        9.4415168170       27.7511029971
  C        -1.3999143102       12.0402709048       29.8004535477
  C        -1.5798864111       13.3755467770       29.9530775357
  H         7.0280251857       14.1346696885       22.0252616732
  H         5.8832655338       12.8144687146       22.5731995625
  C         5.3534700073       13.6760701962       20.6203605972
  S         2.0304911529        5.6849302824       19.7887212392
  N         2.6384198449        6.0960273096       18.3137187064
  C         3.1558389568        8.2603028722       17.1886430844
  H         3.8084289960       10.3847050788       16.6277108517
  H         1.1236743580        8.8208831091       28.3513968572
  H         0.4469157721        9.7419396574       29.5393553097
  C         1.9649867480       10.7466845280       28.6500921926
  H        -1.4450166500        8.7013884835       27.0672508440
  H        -1.7912021496        8.8335948403       28.6438002933
  C        -3.1037634705       10.0720053204       27.3405546735
  H        -1.4523021317       11.2041420713       30.5009925360
  C        -1.7744419984       14.1919158801       31.1334111725
  H         4.5005453257       14.3245050437       20.4845570319
  H         4.9235968242       12.6372738264       20.6211453742
  C         6.5552953955       13.8943096293       19.5329442920
  C         3.3589781220        7.5035911898       16.0198291783
  H         2.3420218521       10.8249097663       27.6454454364
  H         1.6327291276       11.6269108647       29.1466074923
  C         3.1312338600        9.9934779396       29.4047508097
  H        -3.0325666970       10.8432498610       26.5964318882
  H        -3.5638687644       10.4120388945       28.2442396624
  C        -3.9860003307        8.9202243780       26.8893188385
  C        -1.7597853945       15.5854806987       31.3445817124
  C        -2.0360362360       13.4242049446       32.4562717062
  H         6.1368083959       13.6864681739       18.5548748672
  H         6.9025281364       14.8847700677       19.6049984498
  C         7.7453126285       13.0644023873       19.8073328441
  H         3.2537447809        6.4416143244       16.0664905958
  C         3.7218574245        7.9546486099       14.7607078093
  H         3.6524546734        9.3553782698       28.7188607444
  H         2.7842491651        9.3263885355       30.1971492365
  C         4.1288498772       11.0020974904       29.9921644881
  H        -3.6481769526        8.5833457574       25.9272564642
  H        -3.7826073479        8.2156355331       27.6956346095
  C        -5.4889572436        9.2400905515       26.8846230296
  N        -1.5208978485       16.5830438720       30.2772411530
  C        -2.1149737964       16.1913371639       32.5874550326
  C        -2.3978536432       14.0285576054       33.6779246462
  H        -2.0359601822       12.3623367516       32.4342302746
  H         8.3841810666       13.5611285123       20.5057191896
  H         7.3717168688       12.1346912204       20.2280599311
  H         8.2962061316       12.7969658771       18.9031260263
  S         3.8724403533        9.5818550289       14.2117054244
  C         3.8641141257        6.8946145216       13.7482121215
  H         4.0616823430       11.8059360220       29.2573329189
  H         3.7526226099       11.4907695775       30.8574487017
  C         5.4885500471       10.3709957241       30.2301175164
  H        -5.6701716742        9.9665998427       27.6705356015
  H        -6.0598658653        8.2911601792       27.0789613386
  C        -5.7848262180        9.7495420740       25.4570591921
  S        -1.5740287951       17.9741864927       31.0528342354
  N        -2.1865018421       17.5901670238       32.4697591058
  C        -2.4250516301       15.5337283683       33.7957695729
  H        -2.5797824369       13.4062996763       34.5582991021
  C         4.1545172947        8.8724610894       12.6481210578
  N         4.1171614329        7.5313525346       12.6067351540
  O         3.4747865350        5.7605892860       13.8926796003
  H         6.1405944182       11.1057186243       30.5693961946
  H         5.9277429861       10.1255244252       29.2251156839
  C         5.5139240593        9.2603093190       31.2453751455
  H        -4.9102950155       10.3926793244       25.2162478759
  H        -5.7716595249        8.8726895364       24.7557276517
  C        -7.0294311741       10.6632989229       25.3025784340
  C        -2.7106915200       16.3218919054       34.9426439655
  S         4.6152732047        9.6524635034       11.0522687433
  C         4.0691789287        6.6932194283       11.3958053206
  H         6.4423193463        9.3520756782       31.8149600218
  H         4.6907072454        9.4526692309       32.0129033928
  C         5.3012488199        7.8761108011       30.6869211103
  H        -6.9435099865       11.1116375158       24.2947982246
  H        -7.1091604301       11.5016886923       25.9912402953
  C        -8.2285042685        9.7850344123       25.3339423957
  H        -2.4771834246       17.3670947637       34.8422372910
  C        -3.1947596878       16.0212811112       36.1875783103
  H         4.7974814449        6.9811876528       10.6161457753
  H         4.4953613517        5.6932952252       11.6320441780
  C         2.5376152350        6.5965589105       10.9432593530
  H         5.5618044521        7.9793658597       29.7256860958
  H         4.2829006294        7.4904831702       30.6286777798
  C         6.1418656049        6.8323850793       31.3913210050
  H        -8.2273981312        9.1904266040       24.4071019674
  H        -8.1452945932        8.9557393913       26.0554410177
  C        -9.5895429514       10.4369105192       25.5201683038
  S        -3.7236349523       14.5113386053       36.7413429417
  C        -3.2882888903       17.0826242867       37.2254958688
  H         2.1465698096        7.5205863934       10.7361473948
  H         2.4630244785        6.0275403092        9.9812246254
  H         1.9383504608        6.0642922150       11.6626312558
  H         5.8637617096        6.9183335481       32.4338450697
  H         7.1744061678        6.9580062474       31.2051470452
  H         5.9762958952        5.8229494440       31.0008680699
  H        -9.7863224360       10.5814473710       26.6000967765
  H       -10.3772673900        9.7418771331       25.1367619569
  H        -9.6621380796       11.3786185114       25.0434230601
  C        -4.0718395369       15.3011744316       38.2988034269
  N        -3.8516536107       16.6456719786       38.3317360215
  O        -2.7687504589       18.2392429755       37.0931272212
  S        -4.6433057777       14.4721625007       39.7543472767
  C        -4.0379852996       17.4992955536       39.4527855408
  H        -4.3565694318       18.4751718742       39.1327742932
  H        -4.9361265451       17.2640034199       39.9884557287
  C        -2.8146447761       17.6034713840       40.3548417398
  H        -3.1513829130       17.8245656970       41.4120199630
  H        -2.2456348792       16.7087406123       40.5806859208
  H        -2.1772473204       18.4315121125       39.8878864591
  H         7.1099027228       11.2943439222        3.3134153393
  C         7.6879899268       10.4047131186        3.6179350582
  H         6.8088797324        9.8128369174        3.9068674662
  C         8.6812793720       10.6423677984        4.7149793750
  C         8.2722691228       10.0538725724        2.3627913036
  C         7.9172556430       10.9077279293        5.9949513541
  H         9.3060004757        9.7307322608        4.9661041342
  H         9.3238507393       11.4821747269        4.4142750612
  H         9.0227895235       10.7810555658        1.9870531507
  H         7.4503491317        9.8369512499        1.6734236615
  H         8.9232065952        9.1414147359        2.4750613300
  C         7.1904492482        9.6756080232        6.6185441053
  H         8.5038041709       11.2628579012        6.8016790076
  H         7.1812534699       11.7075305130        5.8379993824
  C         6.3310721365        9.8550200922        7.9059764018
  H         7.9460593491        8.8689864530        6.8111279914
  H         6.5021950912        9.3526215360        5.8353059121
  C         5.0916294348       10.7544971240        7.7072447854
  H         6.9135116133       10.3882455314        8.6503206640
  H         5.9752997583        8.9271234876        8.3868925606
  C         3.9052557225       10.0966774008        7.0694544295
  H         4.7273750387       11.0196709692        8.7576099243
  H         5.2556090294       11.5661075751        7.0151847455
  C         2.7228988539       11.1406365767        6.8427136995
  H         3.4833051130        9.3486437956        7.7156151302
  H         4.2523155421        9.6783965983        6.1612086908
  C         2.9943554990       12.4712382762        6.1145780909
  C         2.3029198116       11.8332016784        8.0861060474
  C         1.5286881357       10.3079893951        6.2132581048
  C         2.7420742538       13.5624879821        6.9490411198
  C         3.5038343538       12.8043170373        4.8714185268
  C         2.3209571421       13.1930469369        8.1783171620
  C         1.8720135810       11.1639924724        9.2438852238
  H         1.8106989038       10.0749815720        5.1725778960
  H         1.3483227039        9.4248896712        6.8557536603
  C         0.2966660388       11.1589185386        6.0418693640
  S         3.0489685416       15.0360962030        6.1709156452
  C         3.6203471757       14.1523037902        4.7603219034
  H         3.9085251694       11.9506047484        4.2992714002
  C         2.0280084370       13.7593275083        9.3763703982
  H         1.8780766890       10.1368010740        9.1424114355
  C         1.5909668183       11.7722786637       10.4168589827
  H         0.5701457017       12.0131423299        5.4095213402
  H        -0.1430773919       11.4617331474        6.9655449761
  C        -0.8217741420       10.3928613811        5.2719082204
  C         4.0817857102       14.7934909355        3.5182421449
  C         1.6382994394       13.1034978269       10.5638180098
  H         1.8173962183       14.8531884969        9.3037717012
  C         1.2154963164       11.3030082082       11.6411537300
  H        -1.8109661564       10.8597918952        5.2940458611
  H        -1.0180651244        9.4390186846        5.7159651248
  C        -0.4827484279       10.0746861249        3.8267787464
  C         4.0071943260       16.1639602795        3.1596310653
  C         4.6027476776       13.9603767353        2.3687493939
  C         1.1853175268       13.7642213117       11.7563282886
  C         0.8822440336       12.3818267712       12.4327283019
  S         1.0180466425        9.7867375007       12.3581135397
  H         0.1016632255        9.1430117936        3.8314188217
  H         0.0821288559       10.8791977103        3.3792140523
  C        -1.7806640313        9.8541018765        3.0477905997
  N         3.5522657475       17.1972446404        3.9559491517
  C         4.4602342309       16.6859204567        1.9821643571
  C         4.8587938663       14.4610591222        1.1206467737
  H         4.8067840391       12.9193027592        2.4898870517
  C        -0.0499881868       14.7255312902       11.5465402680
  C         2.3028910966       14.5282401727       12.4735645377
  C         0.3673858406       12.0051598381       13.6863331097
  C         0.4542092744       10.6689821933       13.7663640517
  H        -2.4041768325        9.1348939974        3.6046726921
  H        -2.3030314701       10.8079536221        2.9507203935
  C        -1.4622016000        9.1662571119        1.6891264772
  S         3.8513794322       18.6767268277        3.2647360820
  N         4.4226829316       18.0610324009        1.8783788890
  C         4.7624439769       15.9604189698        0.8469765777
  H         5.1736025999       13.7619083707        0.3681371374
  H         0.2805589767       15.5947619082       10.9083156666
  H        -0.3129897494       15.1456112605       12.5584012180
  C        -1.2892926090       14.0101378665       10.9902513238
  H         2.8894570652       15.1223824566       11.7996284682
  H         2.0197513216       15.1315442762       13.2998756152
  C         3.4081985419       13.6368821192       13.0287678957
  H         0.0398298202       12.7374526976       14.3928647274
  C         0.0506669984        9.9360652985       15.0254922622
  H        -2.3702544586        8.9314578118        1.1529299182
  H        -0.8713634572        8.2872187916        1.9906715785
  C        -0.5902787140        9.9808079343        0.7678250654
  C         5.1105749812       16.5755863166       -0.4392977650
  H        -0.9891302247       13.5315259219       10.0871693612
  H        -1.6675016637       13.3145335352       11.7896998830
  C        -2.4614166821       14.9095152042       10.5812244113
  H         3.8465552483       13.0453377756       12.2502799611
  H         3.0413508732       12.9798735836       13.7959280348
  C         4.4005925779       14.5380395975       13.6495340304
  C         0.0235182581        8.5420109730       15.1637569766
  C        -0.1753758434       10.6751982518       16.3031115299
  H        -0.7406021381       11.0246326796        1.0113085787
  H         0.4031460610        9.7473409966        0.9018193799
  C        -1.0079053834        9.7974794217       -0.7016565739
  H         5.3039929216       17.6805924990       -0.4773862508
  C         5.3243958345       16.0907213749       -1.7314873809
  H        -2.2575964945       15.6288926710        9.7885768026
  H        -2.7478686527       15.5337922531       11.4390727760
  C        -3.5283274461       13.8462224298       10.3129968900
  H         4.7161690345       15.2327217453       12.8937361175
  H         4.0608488718       15.0604761963       14.5092375630
  C         5.6546486937       13.7241230064       14.1587523682
  N         0.2954533051        7.6756334272       14.1422819806
  C        -0.1952798760        7.8440536875       16.3515673423
  C        -0.5357729331        9.9947022798       17.4151871898
  H        -0.1961020112       11.7006446614       16.3167482625
  H        -0.3248052817       10.3226124336       -1.3423660901
  H        -2.0105177909       10.2898998804       -0.7961409412
  H        -1.1218482739        8.7557082561       -0.9821832078
  S         5.4069405239       14.3965395774       -2.1614116046
  C         5.4514280858       17.0489530574       -2.7971460570
  H        -3.2485834431       12.9995069765        9.7565557904
  H        -3.9083356623       13.4849030082       11.2784707180
  C        -4.6495158382       14.5166538392        9.4758978169
  H         6.0960896332       12.8538588424       13.5773206950
  H         5.5626762156       13.3656949732       15.1235213896
  C         6.8298326704       14.7183114097       14.2582641189
  S        -0.0971735694        6.1569599954       14.6456672828
  N        -0.2756937819        6.4800364577       16.1725650065
  C        -0.5144589070        8.5286220016       17.5202520546
  H        -0.7701016175       10.5403767789       18.2624207856
  C         5.5856049611       15.0533608864       -3.8464761216
  N         5.5086171832       16.3984694383       -3.9497820839
  O         5.2599035128       18.2397118078       -2.5851875826
  H        -5.0266915386       15.4622459056        9.9375292359
  H        -4.1737394649       14.8520691392        8.5669262325
  C        -5.7752216428       13.5512851603        9.1317629212
  H         7.7265381524       14.0746771344       14.4207640913
  H         7.0276704086       15.3060458818       13.3693380282
  C         6.7195745326       15.6567055638       15.4838433167
  C        -0.8617625764        7.7487888785       18.6750986546
  S         5.7694405281       13.9602547165       -5.1966778918
  C         5.3228623583       17.0437710928       -5.2687283354
  H        -5.5328262066       13.1081923151        8.1786456146
  H        -5.9646372375       12.8313895119        9.9032590356
  C        -7.1366115494       14.2507659339        8.9939955275
  H         6.6809227922       14.9511520021       16.3878321736
  H         5.7234631938       16.1312301046       15.4090566181
  C         7.9214999017       16.5946219002       15.5727895804
  H        -0.5910143145        6.6928876636       18.5712952180
  C        -1.3042815264        8.1681549600       19.9027445217
  H         6.0084863808       16.5233603358       -5.9521279203
  H         5.6058287862       18.0595155260       -5.1968809703
  C         3.9312057504       17.0519217521       -5.7931224362
  H        -7.6786237331       13.8623695190        8.1740503071
  H        -7.1028388219       15.2774751668        8.6742146707
  C        -8.1829927006       14.3181589179       10.1003245893
  H         8.0518330860       16.9181483279       16.6729640328
  H         8.8733465909       16.1172903458       15.4782903434
  C         7.7724739508       17.8258033777       14.7447975617
  S        -1.5405406523        9.6976126067       20.5881556364
  C        -1.6070014325        7.1366748050       20.8548849190
  H         3.7670865454       17.8605563135       -6.5777143471
  H         3.2916654378       16.9921967437       -4.8766096970
  H         3.9242428084       16.2018708360       -6.3840039049
  H        -8.4163896630       13.4446939576       10.6177643396
  H        -7.9968005787       15.1626511088       10.7953250480
  H        -9.0861319869       14.8013438019        9.8651970010
  H         7.0985255732       17.6550765134       13.8491024309
  H         7.2792988653       18.6084430237       15.3679897601
  H         8.7658159080       18.1365078416       14.2872361545
  C        -2.2456646940        8.9461354772       22.0077734421
  N        -2.2721099126        7.6138670730       21.9271824289
  O        -1.2849998804        5.9561968924       20.6505090655
  S        -2.8367389440        9.7760656363       23.4967088656
  C        -2.3826232078        6.7569325078       23.1120729821
  H        -2.7019610972        5.7827059685       22.6724697170
  H        -3.2370685837        6.9970029183       23.6806622449
  C        -1.1273082620        6.6190738940       23.9293712803
  H        -1.2032902448        5.9566783339       24.7672753396
  H        -0.8660823499        7.6280217551       24.2571832475
  H        -0.3904123104        6.1683925833       23.2779485621
