352
i =
  H        -3.2101905289       14.6882126994       16.7172576996
  C        -2.6467602666       13.7553444812       16.6290374231
  H        -3.3351469529       12.9385167444       16.9254072012
  C        -1.3603336098       13.8398075854       17.4556183837
  C        -2.2979275220       13.7295257145       15.1433230362
  C        -1.5330880621       14.1738541387       18.9427381748
  H        -0.6932942585       12.9808578439       17.4883822178
  H        -0.8901306362       14.6571594880       17.0126363770
  H        -1.3821965774       14.2998704155       14.8650784993
  H        -2.2549151981       12.6943137594       14.7181934625
  H        -3.0368109713       14.2392578445       14.5775305794
  C        -1.7144839467       12.8598108181       19.7514258661
  H        -2.3374545444       14.8682931541       19.1126691038
  H        -0.6582922074       14.7296940736       19.1942080561
  C        -2.1880722940       13.0254270746       21.1549614180
  H        -2.4789217927       12.2213965692       19.2617538229
  H        -0.8264033715       12.2200483413       19.6812326120
  C        -1.2401116335       12.4968442031       22.3424620840
  H        -3.1972833113       12.6026200844       21.2605545238
  H        -2.2699531281       14.0870328423       21.2921280331
  C         0.0107448768       13.4748064051       22.5553862440
  H        -1.8955352983       12.3779222932       23.2154870775
  H        -0.8993484505       11.5280094217       22.0541916686
  C         1.2269837690       12.9252698984       23.3401589291
  H         0.3119281074       13.9521801400       21.6330514711
  H        -0.4544385854       14.1987668102       23.1993614893
  C         1.6193125922       11.6087637686       22.6676484815
  C         0.9136092061       12.2753130860       24.6086861220
  C         2.4195830004       13.8587925683       23.3395290297
  C         1.3203190881       10.5071423273       23.4815082086
  C         2.1110981318       11.3000792598       21.3992722686
  C         0.9354685651       10.9231505951       24.7440414309
  C         0.5882463735       12.9742755976       25.7707549526
  H         2.4073534723       14.0972843552       22.2936002031
  H         2.3051208480       14.7415671549       24.0113800263
  C         3.8106671803       13.1739611784       23.6870699288
  S         1.7570672457        9.0447333342       22.6692466545
  C         2.2358824374        9.9647779858       21.2512780392
  H         2.2981753085       12.0654856883       20.6494138460
  C         0.6347676269       10.3992181767       26.0187463512
  H         0.6018666419       14.0603973337       25.7239707109
  C         0.2552830191       12.4488538529       27.0389499148
  H         4.1514568361       12.5258523600       22.9539825938
  H         3.7128984483       12.5031924480       24.5329211354
  C         4.9849735342       14.1422571383       23.8597946506
  C         2.6833684493        9.2402396270       20.0067072961
  C         0.3277103294       11.1142253597       27.1972664584
  H         0.6363393148        9.3137766225       26.0882463731
  C        -0.2434295092       12.8861614748       28.2554699218
  H         5.8543100035       13.5991000220       24.1053356578
  H         4.8656130766       14.8569156576       24.5827096444
  C         5.3761384240       14.9096626157       22.5648376803
  C         2.6414396095        7.8556520695       19.6769347079
  C         3.0229696540       10.1499079576       18.8442501640
  C        -0.0977524944       10.5389988615       28.5281730415
  C        -0.2888544977       11.8398362858       29.1762432194
  S        -0.7239205898       14.3773451861       28.9511516215
  H         5.9255871829       15.8410331082       22.7708095954
  H         4.4316844201       15.1834132359       22.0398026982
  C         6.3891863365       14.0841485275       21.5742117457
  N         2.4155257719        6.8765212242       20.5722924372
  C         2.7985640789        7.4790834429       18.3821305889
  C         3.3163671549        9.7144569277       17.5377896132
  H         3.2003963949       11.1748334974       19.0212404688
  C         0.9938353414        9.7254238673       29.2791216534
  C        -1.4869680467        9.7311902684       28.4194439670
  C        -0.7081510188       12.2403690454       30.4590332580
  C        -0.9662133444       13.5803131079       30.4686161954
  H         7.2955913344       14.6001505065       21.5013900983
  H         6.7474207667       13.1280156168       21.9903959885
  C         5.7227186169       13.7832886815       20.2041824390
  S         2.5623791315        5.4877617110       19.7660639088
  N         2.9646075023        6.1174232494       18.3166587962
  C         3.1602352449        8.2411713028       17.2810069293
  H         3.7687240790       10.3647322003       16.8290179454
  H         1.1136618801        8.8020001791       28.7559525087
  H         0.4680758965        9.3676284890       30.1818205986
  C         2.3442761539       10.4720736149       29.4698443309
  H        -1.2633298637        8.8839702438       27.7900764057
  H        -1.8326576427        9.4031308374       29.3478250879
  C        -2.5628066439       10.3986472814       27.5898049464
  H        -0.7525070404       11.4755868800       31.2043252010
  C        -1.5149226508       14.2908788341       31.6972628840
  H         5.3832820704       14.7374067391       19.8529723324
  H         4.8006837872       13.1781653444       20.1298108471
  C         6.7150727904       13.2203136089       19.2236745903
  C         3.4409282982        7.6357405219       16.0257428205
  H         2.7180720196       10.8643836396       28.5368632177
  H         2.2244804765       11.2927448895       30.1780897835
  C         3.4815413598        9.6559997094       30.0670610540
  H        -2.2565005351       10.6220095709       26.5838016750
  H        -2.7997102552       11.3516989463       27.9428426694
  C        -3.9266065952        9.6860884644       27.6804790810
  C        -1.5297352811       15.7337412121       31.8303044837
  C        -1.6985442761       13.5269965831       32.9578644155
  H         7.5498699677       13.9266745189       19.0452107624
  H         7.0578061771       12.3434476296       19.7132685249
  C         6.0852051338       12.8240885113       17.8710456918
  H         3.3388170873        6.5798616826       16.0862872728
  C         3.8941904709        8.0905870624       14.8428475041
  H         3.7863384806        8.8420695210       29.3992664140
  H         3.1230874925        9.1126540683       30.9777661208
  C         4.6722504057       10.5574658699       30.5173958669
  H        -3.9438139629        8.9029783057       26.9257136356
  H        -4.0327668423        9.2863227343       28.6771779286
  C        -5.0590035474       10.5800646622       27.1443688225
  N        -1.2150895651       16.6269086689       30.7430946297
  C        -1.8068494342       16.3556534806       33.0270725066
  C        -2.0195073767       14.1647196037       34.1766389773
  H        -1.6251676476       12.4530537808       32.9453985316
  H         6.7898730364       12.2217481554       17.2965640296
  H         5.2502349620       12.1790987682       17.8476747645
  H         5.8055827994       13.6352041771       17.2010936332
  S         4.2694698640        9.7384895929       14.5049665029
  C         4.0097745985        7.1718761025       13.6998444977
  H         4.6938324691       11.5117312203       29.9660038121
  H         4.5229467916       10.8321848991       31.5894802786
  C         5.9803763702        9.7585328872       30.3126326964
  H        -4.4265380740       11.2481422026       26.6232298691
  H        -5.5170088677       11.1080124133       27.9637947047
  C        -6.0475224061        9.8212852588       26.3268052826
  S        -1.1439186737       18.1127150500       31.3991426247
  N        -1.6347979285       17.7836726254       32.9057534443
  C        -2.1327475401       15.6288093755       34.1779774588
  H        -2.2574008957       13.5964225888       35.0463073130
  C         4.6745358302        9.2107308974       12.8956915248
  N         4.4462367392        7.8778220112       12.6377569327
  O         3.6113791348        5.9875684589       13.7453810974
  H         6.7827993256       10.4252862419       30.4907609095
  H         6.0009750569        9.4764808576       29.2650221498
  C         6.0941012509        8.5304146318       31.1617221466
  H        -5.4643943883        9.5036587891       25.4821996191
  H        -6.4651584760        8.9612569861       26.7982162141
  C        -7.2468733477       10.6403321092       25.8988038705
  C        -2.5290921687       16.4727161898       35.3077380780
  S         4.6678490436       10.2651842544       11.4692695466
  C         4.5302119735        7.2761801172       11.2586181467
  H         6.6525016066        8.6917462128       32.1077819689
  H         5.1585401122        8.3115011682       31.6618419852
  C         6.6169386203        7.3522117242       30.4145932316
  H        -6.8661143234       11.3858268956       25.1947742186
  H        -7.7087920547       11.2329103840       26.7363357474
  C        -8.2816958928        9.8797446928       25.0525201161
  H        -2.5187635041       17.5446320525       35.0858822915
  C        -3.0484710647       16.2335011192       36.5688627596
  H         5.2705277786        7.8338489099       10.7291810376
  H         4.7806599929        6.2474387987       11.4315895010
  C         3.2045894983        7.4135931224       10.4383160993
  H         7.6600916185        7.5262125209       30.0304764181
  H         6.0055697755        7.0356210901       29.5312726940
  C         6.7233604261        6.1855941144       31.3362022563
  H        -8.2049978586       10.2637444367       23.9678094002
  H        -7.9314597958        8.8317483490       25.0040171052
  C        -9.6919200166        9.9185957120       25.6053761165
  S        -3.4903678030       14.7319530426       37.2183792421
  C        -3.1163669285       17.4124179912       37.4907514896
  H         2.9956222660        8.4367420604       10.3068215714
  H         3.4086531925        7.1277402541        9.3891753971
  H         2.3580969011        6.8935046327       10.9056634799
  H         6.3950904176        5.1813430946       30.9102974999
  H         6.0685061853        6.4295565510       32.1309497152
  H         7.7839964129        5.9933203500       31.6616270027
  H        -9.6774916541        9.6047756507       26.6327377144
  H       -10.4438177005        9.3252791560       25.0268675865
  H       -10.1650079578       10.9676805344       25.6360267049
  C        -3.9389585201       15.6795440505       38.6738393766
  N        -3.8087930512       16.9967219043       38.6093628627
  O        -2.8697504231       18.5687959457       37.2627193293
  S        -4.8022438273       15.0972248567       40.0945786020
  C        -3.8546806714       17.9355217744       39.7270883498
  H        -4.0156785302       18.9324332933       39.4004242863
  H        -4.7440894609       17.7310687486       40.3514400978
  C        -2.5814008715       17.9423534361       40.5507492201
  H        -2.5353653892       18.7587124386       41.2958275151
  H        -2.3975583829       17.0035224991       41.1140912109
  H        -1.6734302541       17.8657894247       39.9302613602
  H         7.6722895288       10.8170697434        3.6909765041
  C         8.5554344087       10.2204538000        3.7809866900
  H         8.2905169878        9.2036031658        3.8454844779
  C         9.2982952935       10.4521275202        5.0567330521
  C         9.3666152225       10.3521356343        2.4702037859
  C         8.3285415689       10.8305930367        6.1095603994
  H         9.8759790612        9.5817464863        5.4082676624
  H        10.0468574829       11.2188425003        4.8800217392
  H         8.8586687488        9.9559100169        1.6022583321
  H        10.2570326447        9.7169045108        2.5193798428
  H         9.6076065268       11.3807562057        2.1913577412
  C         7.5184096701        9.6116177652        6.6966779415
  H         8.8065157789       11.3909179330        6.9231353077
  H         7.6074346406       11.4661865415        5.7449229933
  C         6.8082414233        9.8341861991        7.9569953688
  H         8.2059158848        8.7253769633        6.7054751312
  H         6.8813655333        9.3118490772        5.8391468242
  C         5.5047129114       10.7005539612        7.8373535346
  H         7.4292908184       10.3434765244        8.6780066844
  H         6.5629965083        8.8660629339        8.4379112696
  C         4.3800982764       10.0886919263        6.8796794791
  H         5.2118620666       10.9184999648        8.8550536663
  H         5.8159706177       11.5688720595        7.3067366746
  C         3.0653703506       10.8994490518        6.7712830363
  H         4.1243396582        9.1624633087        7.3430666395
  H         4.7687867589        9.9101846845        5.8110650250
  C         3.3626178780       12.2261356512        6.0556761034
  C         2.5575937973       11.6149620634        8.0347919736
  C         1.9844593628       10.2708352075        5.7536099892
  C         3.0846512500       13.3425577194        6.8601383079
  C         3.9030964161       12.6870815408        4.7872685000
  C         2.5461332037       12.9840661442        8.1086034346
  C         2.0680827796       10.9581723237        9.2105734360
  H         2.4698122168       10.3335810258        4.8577876225
  H         1.9885132493        9.2417715714        6.0625620352
  C         0.6041150584       10.9188279571        5.9182305862
  S         3.4873316277       14.8749503577        6.1529502975
  C         4.0294246953       14.0463868190        4.7365177590
  H         4.2646082774       11.9749350993        4.0535828163
  C         2.1914995322       13.5715260971        9.3349991730
  H         2.1190496642        9.8675545082        9.1553209348
  C         1.6408878895       11.5275368903       10.3731815797
  H         0.6851912471       12.0341544909        5.9160726899
  H         0.1327263160       10.6486766566        6.8585815378
  C        -0.4289554249       10.5107091098        4.8782351015
  C         4.5809553624       14.7150458870        3.4943073760
  C         1.6844818205       12.8931758062       10.4838020067
  H         2.1988057758       14.6484077910        9.4782128069
  C         1.1629958144       11.1003500740       11.5608626135
  H        -1.4614066584       10.7230022090        5.1892923083
  H        -0.3919231226        9.4270315469        4.8833817448
  C        -0.1446914867       11.0713586274        3.4068425773
  C         4.3894769962       16.0625902657        3.1374615718
  C         4.9781499459       13.9009961625        2.3114173696
  C         1.2451671548       13.5366797181       11.7434727962
  C         0.9245490050       12.1628248379       12.4469385748
  S         0.9405860028        9.5791517903       12.2143995145
  H         0.9216021513       11.1239383510        3.2541578626
  H        -0.3725575725       12.1419515078        3.3919279533
  C        -0.8183798342       10.1444035270        2.4222269709
  N         4.1256136089       17.0563396498        4.0851428980
  C         4.6367872402       16.6058055716        1.8839784605
  C         5.2346174269       14.4448016570        1.0846227320
  H         5.2692524655       12.8630025248        2.4689705226
  C        -0.0853670022       14.3975220751       11.6318832872
  C         2.3500992324       14.2513368481       12.5977871853
  C         0.5925499088       11.7289327146       13.7082259086
  C         0.5575741449       10.3556386176       13.7328195444
  H        -1.5375800488        9.5990756656        2.9395273165
  H        -1.4083412120       10.6793001301        1.6715623320
  C        -0.0069020120        9.0639837243        1.6329419541
  S         4.2463689091       18.5019269096        3.4204316855
  N         4.5544329127       18.0092159532        1.8449121932
  C         5.0238273361       15.8533709841        0.8127053607
  H         5.6059679075       13.7824305373        0.3215914641
  H         0.1717764794       15.2185026551       10.9137571082
  H        -0.2554358798       14.8226179755       12.6104046403
  C        -1.3054594107       13.5115995115       11.1945942554
  H         2.8261830046       14.9866657096       11.9739771500
  H         1.9771474247       14.6414437905       13.5264718269
  C         3.5097273118       13.3510476550       13.1628503419
  H         0.5405394796       12.4228074378       14.5831854911
  C         0.2931169997        9.6024008462       14.9882390520
  H        -0.5311545168        8.2431249847        1.3434734218
  H         0.6594855639        8.5490624048        2.3227428666
  C         0.6114042590        9.7376960326        0.3438500148
  C         5.1182899460       16.4346773328       -0.4855563570
  H        -1.1799469973       12.9038168600       10.2856112382
  H        -1.4759765888       12.8566746044       12.0074431352
  C        -2.6131799371       14.3461124636       10.8154664259
  H         4.0133144769       12.8306693618       12.3429859329
  H         3.0262103347       12.7026436632       13.8678744178
  C         4.5464879209       14.2236461833       13.8835693019
  C         0.2689521285        8.1819781505       15.1309977523
  C         0.1290588068       10.2692045271       16.2685181298
  H         1.1647479081       10.6267797292        0.5988292366
  H         1.3574924562        9.1086287507       -0.1904746554
  C        -0.4019835401        9.9640858329       -0.7495146656
  H         5.2417310552       17.4582061061       -0.4432283474
  C         5.3820625594       15.9772411262       -1.7323480193
  H        -2.2257505664       14.8255458195        9.9519657444
  H        -2.7530183769       15.1633731281       11.4623785681
  C        -3.7950132783       13.3828172093       10.5416209851
  H         4.1275547138       15.1551792352       14.1511097530
  H         4.8544329503       13.8237587146       14.8197850862
  C         5.7115976654       14.6437343081       13.0219525658
  N         0.4865561370        7.3927332440       14.0242165415
  C        -0.0470657220        7.4723563835       16.2699936973
  C        -0.1831907903        9.5770770064       17.4675376681
  H         0.2103928238       11.3128947079       16.3892493757
  H        -0.2158331996       11.0634529169       -0.9680186586
  H        -1.3863022939        9.8161341537       -0.3737431895
  H        -0.0372486689        9.3122840330       -1.5301175111
  S         5.7826943138       14.4360466497       -2.1796634283
  C         5.3252590878       16.9449465980       -2.8218996174
  H        -3.4895923841       12.3975379144       10.1419388543
  H        -4.3884075323       13.2038375737       11.4529956369
  C        -4.8051334689       14.0922124019        9.6624373580
  H         5.2958357228       14.6882467589       12.0056748946
  H         6.3535846995       13.8243091546       12.9701676649
  C         6.4450826807       15.9643570591       13.4089993774
  S         0.2501526750        5.8433756470       14.4288108703
  N        -0.0435297443        6.0956095487       16.0226519950
  C        -0.3785596631        8.0970248670       17.4956683656
  H        -0.3675873923       10.1768940822       18.4008927096
  C         5.9615130337       15.0275101628       -3.7757324778
  N         5.7366610226       16.3889567371       -3.9391234765
  O         4.9694247805       18.1183543568       -2.6014244891
  H        -5.5305245107       14.6678922389       10.2418750476
  H        -4.2993261835       14.7513487451        8.9902860990
  C        -5.6380831749       13.1399002103        8.7923968181
  H         7.4184626288       16.0007063370       12.8476551601
  H         5.9216435102       16.8042295155       13.0253845952
  C         6.7137608307       15.9881478318       14.9734259314
  C        -0.5828457436        7.3222117180       18.6491554435
  S         6.3576196972       14.0635322228       -5.2080871217
  C         5.7124460595       17.2452692842       -5.1111921631
  H        -4.9151926116       12.9901040850        7.9613330018
  H        -5.9031351895       12.1970267976        9.2609516882
  C        -6.8573952441       13.7104717077        8.1848565097
  H         6.8816156201       14.9681517255       15.2718861663
  H         5.7960646350       16.2242362141       15.5041398876
  C         7.8884062092       16.8702713661       15.3676507913
  H        -0.7313208164        6.3106520918       18.4372206023
  C        -1.0966404785        7.6020690545       19.9170656127
  H         6.5141429814       16.9111761047       -5.8458542284
  H         6.1033298723       18.2125979226       -4.9428647795
  C         4.3739749796       17.3978837723       -5.7088303022
  H        -7.0622675135       12.9851998763        7.4395689992
  H        -6.6598966354       14.6153510895        7.6691639276
  C        -8.0389843154       13.8991755718        9.2325066365
  H         8.0997450189       16.5576692333       16.3526580982
  H         8.7588862015       16.6914810948       14.7269211826
  C         7.6111234312       18.3696656514       15.4091879033
  S        -1.4060848821        9.1598751291       20.5964444192
  C        -1.1054182238        6.5128526944       20.9175810932
  H         3.5678031174       16.9352365759       -5.1367244524
  H         4.4304509099       16.8691934813       -6.6865829885
  H         4.1577590211       18.4342438258       -5.8317193884
  H        -8.8682111992       14.4646955201        8.7337758277
  H        -8.4334036495       12.9552875622        9.7250839230
  H        -7.5428852994       14.6613097995        9.9417818538
  H         8.1274298696       18.8864227427       16.2672164987
  H         8.1462887545       18.7105610079       14.5501377324
  H         6.5312783463       18.5423522534       15.4524792120
  C        -1.7883925802        8.4118324195       22.0888677575
  N        -1.6220838515        7.0726831898       22.0998741924
  O        -0.7621451484        5.3384912354       20.7093502465
  S        -2.4615447780        9.2720509598       23.4853725038
  C        -1.7446328863        6.2874928521       23.2583813440
  H        -1.9056987418        5.2869368822       22.8460843666
  H        -2.6278337978        6.6198888267       23.7332094242
  C        -0.3925962890        6.2175154930       23.9793493778
  H         0.3656576783        6.2828369791       23.1953481848
  H        -0.3629923603        5.3034964377       24.4721161260
  H        -0.1865120653        7.0139677074       24.6738402573
