352
i =
  H        -3.0828002138       15.0458898282       16.1616475040
  C        -2.9579679104       13.9796593315       16.3291988988
  H        -3.8556590530       13.3726888591       16.5608065550
  C        -2.0432267688       13.7427289818       17.4824415835
  C        -2.4662416321       13.2702517135       15.0308538685
  C        -2.6453231300       14.0199964892       18.8441277314
  H        -1.6017067017       12.7610274783       17.4785567624
  H        -1.1330753173       14.4227485845       17.3212985027
  H        -3.1678872167       13.0394982542       14.1836845900
  H        -1.8065704427       13.9707089249       14.5131802971
  H        -2.0693516645       12.3537652903       15.3731366587
  C        -1.6910556571       13.6953780109       20.0103012161
  H        -3.5322163477       13.4255060931       18.9697301264
  H        -2.7708264251       15.1122949728       18.9892514573
  C        -2.3016988614       13.7950898536       21.4167398580
  H        -1.3093467230       12.6612426224       19.9883603584
  H        -0.8365578442       14.3660035470       20.0062932268
  C        -1.4050393439       13.1857026483       22.5177676440
  H        -3.2679041087       13.2908071231       21.3740243290
  H        -2.4019842942       14.8921934205       21.7349775307
  C        -0.2215539855       14.0686199809       22.7538994598
  H        -1.9318725172       13.1387972863       23.4551182663
  H        -1.3291387893       12.1309803114       22.0909237820
  C         0.9601606683       13.2670642658       23.4397984883
  H         0.1257925354       14.4933153243       21.8477262066
  H        -0.5521560966       14.9713409562       23.3231190641
  C         1.2584576392       12.0132152618       22.6675653114
  C         0.4881824736       12.5172569218       24.6168293341
  C         2.2044878813       14.1287335602       23.7680390002
  C         1.0501405341       10.8371920206       23.3755764254
  C         1.7357759923       11.7071692845       21.3546025942
  C         0.4849276347       11.1371011423       24.6377192120
  C         0.0683486280       13.1263083656       25.7895790201
  H         2.2880730060       14.7887162507       22.8678527953
  H         1.9451634671       14.7346453689       24.6442541124
  C         3.5913852518       13.3984340083       23.9872280537
  S         1.4476437842        9.3924078886       22.5647337771
  C         1.9314895466       10.3441351232       21.2049098254
  H         1.7932879377       12.4903312632       20.6337438615
  C         0.0784905722       10.4621107776       25.7391995849
  H         0.1058519656       14.2194916831       25.6772336906
  C        -0.2997320265       12.4208366459       26.9266980959
  H         3.6913731277       12.4714646084       23.4327509796
  H         3.4416107153       13.2252056795       25.0424048860
  C         4.8986853257       14.1598643810       23.9357036522
  C         2.5529583883        9.7083298207       20.0572181745
  C        -0.3311016741       11.0734492588       26.9697758863
  H         0.2222539174        9.3767710528       25.7439679941
  C        -0.6922306171       12.8121727365       28.1757293394
  H         5.7088046130       13.6708462410       24.4860943077
  H         4.7896274331       15.1473048463       24.4906304503
  C         5.3808159190       14.3417799620       22.4590409181
  C         2.6113911018        8.3533770793       19.8085886739
  C         3.1306354848       10.4983685072       18.9396068977
  C        -0.7559970549       10.3715368041       28.2183422593
  C        -1.0451433094       11.6901018125       28.9607424223
  S        -0.8673348245       14.3335410058       28.9400778147
  H         6.3219137989       14.9668127463       22.4516934573
  H         4.6818223554       14.9732291867       21.8566674721
  C         5.7986581737       13.0699742331       21.6849051419
  N         2.3019072559        7.3379440629       20.7752023987
  C         2.8142811099        7.7636083582       18.5878696401
  C         3.4119591493       10.0077851953       17.6960700544
  H         3.1266319691       11.5393571657       18.9922691559
  C         0.4300603436        9.5807977849       28.8831915850
  C        -2.0713201372        9.5645053773       28.1425739725
  C        -1.5564658420       12.1356694585       30.1681807237
  C        -1.4086158529       13.5257064446       30.3063717638
  H         6.8092714176       12.8305632026       21.9928265817
  H         5.1232226526       12.2188572100       21.8436249162
  C         5.8996422489       13.4065392706       20.2730689323
  S         2.3982129418        5.8284555382       20.0558977760
  N         2.7633363534        6.3589911712       18.5947642624
  C         3.2296728279        8.5339159468       17.4108472364
  H         3.6375285115       10.6117715646       16.8333052543
  H         0.8509866059        9.2417775825       27.9988213201
  H         0.0745956065        8.6658283380       29.3912663887
  C         1.5746210789       10.3880389223       29.5462244400
  H        -1.8752989596        8.7078894390       27.3966753642
  H        -2.2319340312        9.1043689693       29.1254146137
  C        -3.2068676499       10.3769492329       27.6533629836
  H        -1.7787071486       11.3463619704       30.8490825186
  C        -1.6974941642       14.3065421172       31.6106679085
  H         5.1645359952       14.0980026093       19.8417787907
  H         5.5742041807       12.4545938451       19.8586211282
  C         7.3637411217       13.8368842454       19.8694857242
  C         3.3051420725        7.8015135025       16.1698085131
  H         1.9321766089       11.0002791145       28.6899754562
  H         1.3204382023       11.0853402929       30.3517123521
  C         2.6805309528        9.5570965829       30.2201001504
  H        -2.8857256200       10.8346459212       26.6819465218
  H        -3.4395737321       11.1934345486       28.3326700782
  C        -4.4922469677        9.4678073339       27.5282675256
  C        -1.7550809485       15.7260447563       31.7203368224
  C        -1.8050176006       13.5755411601       32.8879685245
  H         7.8285894101       14.6335362265       20.4512333732
  H         8.0577691150       13.0149048378       19.9845536367
  C         7.3824864696       14.1404972299       18.3782338220
  H         3.4135922355        6.6871961590       16.3761462663
  C         3.5084397785        8.2512399491       14.9088749674
  H         2.7370141071        8.5814373449       29.7717259867
  H         2.3232437724        9.2958046880       31.1961261642
  C         4.0011502004       10.3470531853       30.1445395996
  H        -4.3379271145        8.7141713525       26.7437675289
  H        -4.6707321896        8.8795860713       28.4153432673
  C        -5.7946380452       10.2023494936       27.3517138672
  N        -1.5548135966       16.6492252445       30.6548622964
  C        -2.0478492365       16.3555050106       32.8991404319
  C        -2.2334686151       14.2541828743       34.0495646330
  H        -1.5322760047       12.4950209768       33.0142348842
  H         8.2064711026       14.7653904844       17.9528047253
  H         7.5044380908       13.1838752707       17.8629152186
  H         6.4273013336       14.6775412611       17.9978825584
  S         3.7881436014        9.7854196739       14.3243094352
  C         3.5552343721        7.1538690297       13.8538600864
  H         4.1136145932       11.0730503234       29.3861814660
  H         4.0492288817       10.9875269378       30.9547463793
  C         5.1725606752        9.3206628553       30.1499164580
  H        -5.6203911412       11.1941498621       27.1567081885
  H        -6.3461151037       10.3319770981       28.2745825191
  C        -6.6497975851        9.6192882117       26.1970701293
  S        -1.4238608914       18.1371714166       31.2960605065
  N        -1.8933073137       17.7659615003       32.7822609627
  C        -2.3713922177       15.7145347112       34.0979705277
  H        -2.2873929907       13.6464350622       34.8952327772
  C         4.1807178617        9.0565352611       12.7679729453
  N         3.9539637198        7.7190308929       12.7250876696
  O         3.3514978218        5.9575745844       14.0714545757
  H         5.9739616524       10.0610795452       30.2382032739
  H         5.3739790047        8.8026472604       29.2386680292
  C         5.1092144566        8.1904330118       31.2399890564
  H        -6.0404845408        9.1799106125       25.4178420940
  H        -7.2470492166        8.8244049270       26.5746040097
  C        -7.5060508107       10.6897728506       25.4439096513
  C        -2.6716951736       16.5176596734       35.2849975965
  S         4.8785070749        9.8173345642       11.3768470233
  C         4.0980680627        6.9613945151       11.5256341368
  H         4.8786203363        8.7091515844       32.1961198624
  H         4.3000021399        7.5132789046       31.2100910363
  C         6.3354746063        7.3468621434       31.4221771693
  H        -7.0201932987       11.1035789553       24.6259763998
  H        -7.7058050804       11.6757828991       26.0180125692
  C        -8.8621395848       10.2281684409       25.1124114908
  H        -2.7322804467       17.5910824962       35.2259124784
  C        -3.0577999545       16.0505864485       36.5716752688
  H         4.7237391363        7.4862120695       10.8512548827
  H         4.5198646413        6.0102210866       11.7074676823
  C         2.7136546146        6.6210009653       10.9440214601
  H         6.2069885781        6.7567763623       32.3265861342
  H         7.1720117700        7.9489268793       31.5892351986
  C         6.5436438366        6.1295999450       30.4446609336
  H        -9.2270279226       10.8346274379       24.3496734050
  H        -8.8296718647        9.3337471553       24.5566351452
  C        -9.7078764333       10.0847331286       26.3183828556
  S        -3.4765535718       14.3967763600       37.0075447061
  C        -3.0902314650       17.1164718105       37.6471153238
  H         2.0824878822        7.4058850148       11.2897376033
  H         2.8416448819        6.7014872577        9.8459611892
  H         2.2851379544        5.7264935115       11.3144062178
  H         6.6293460241        6.5559629209       29.4423963467
  H         5.5655026596        5.6117365282       30.4673467960
  H         7.3483800098        5.4987798940       30.7579146389
  H        -9.4346280393        9.1936529335       26.9016779322
  H       -10.7654866469        9.9100747583       25.9559003023
  H        -9.6410756627       10.9811705005       26.9451825066
  C        -3.8812250374       15.1943088635       38.5746939965
  N        -3.6882046552       16.5392567309       38.7102934328
  O        -2.8398229637       18.2889234393       37.5983359009
  S        -4.8425704342       14.4336643840       39.8642585532
  C        -4.0885755825       17.2886149391       39.9158389846
  H        -4.2323723127       18.3324367276       39.6196599683
  H        -5.0514720263       16.9760756540       40.2911237793
  C        -3.1633714827       17.1481722622       41.0899848888
  H        -3.1772261515       18.0661643320       41.7869668954
  H        -3.2962896814       16.2446842459       41.7278283911
  H        -2.0962184987       17.0450650370       40.8848642631
  H         7.4317119558       10.9136383082        3.9637638242
  C         8.1723298100       10.1560488118        3.7935818643
  H         7.5531282625        9.3600784338        3.5499292228
  C         8.9926618506       10.0281755129        5.1005907467
  C         8.9871689146       10.4590622243        2.5387126110
  C         8.1695758504       10.2776978484        6.3791164035
  H         9.5624409338        9.1604397911        5.2588866994
  H         9.7619192108       10.8000410037        5.0203982090
  H         8.3910999244       10.6957713386        1.6402119308
  H         9.3710984982        9.4997977244        2.3411433466
  H         9.9000810973       11.0369438572        2.6387778195
  C         7.3653591832        9.0468788364        6.7453933388
  H         8.6661072209       10.7161736370        7.1897396771
  H         7.4113928453       11.0048229911        6.0436307853
  C         6.4442692562        9.3729178851        7.9754914613
  H         7.9394885504        8.1445689670        6.9449367061
  H         6.7628520996        8.7959973052        5.9128025235
  C         5.3075518754       10.3459529560        7.8021441359
  H         7.0733505394        9.8800723272        8.6882579892
  H         6.1034207991        8.4344772815        8.3863244076
  C         4.1046147682        9.6282840709        7.2527949823
  H         5.2601786714       10.6578734047        8.8217106468
  H         5.6366772994       11.1589781147        7.1141666760
  C         2.7667222115       10.4921543974        7.0931792408
  H         3.7674929668        8.8476359201        7.9917846241
  H         4.2513338526        9.1638859705        6.2790395626
  C         3.1255168505       11.7811568658        6.3475614244
  C         2.3204235402       11.1504441395        8.3234857052
  C         1.5640561164        9.7415546992        6.4501630084
  C         2.7936368941       12.8547665241        7.1235451383
  C         3.6256719042       12.1759097857        5.1172977443
  C         2.3124564895       12.5049710085        8.4044365891
  C         1.9175660114       10.5405034429        9.5401292455
  H         1.9001572481        9.2932458940        5.5056130770
  H         1.2266566832        8.8272613466        7.0666146182
  C         0.3168205026       10.6959791352        6.1096806446
  S         3.1204453600       14.3405533343        6.3834709046
  C         3.7537867884       13.4857706440        4.9432659046
  H         3.9532275728       11.3636433562        4.4103646808
  C         1.9437394118       13.1406387641        9.5160207596
  H         1.9439721944        9.4956146633        9.5670891359
  C         1.4835389351       11.1734070344       10.6279746881
  H         0.7211554927       11.5838865416        5.7698992285
  H        -0.3459497599       10.7536285292        6.8713700096
  C        -0.5406022100       10.2091015989        5.0020383704
  C         4.2690407928       14.2468786398        3.7420927618
  C         1.4305951974       12.5435538757       10.6764733283
  H         1.9390885409       14.2044610888        9.3984658142
  C         1.0119160814       10.7804562231       11.8767623286
  H        -1.5071124313       10.7130450896        5.1447268776
  H        -0.7079970069        9.1087580739        5.3032441907
  C         0.0586082681       10.4360879983        3.5991599015
  C         4.0978131005       15.6632381891        3.4933785495
  C         4.6779030508       13.3826561557        2.6020544520
  C         0.8976070891       13.2789154819       11.9934390784
  C         0.6580412206       11.8877815702       12.6711142256
  S         0.7096025078        9.2934064619       12.6664361943
  H         1.0192777174        9.9066270962        3.4140917272
  H         0.3690423132       11.4252391774        3.4409226709
  C        -0.9423164352       10.1335285308        2.4647992454
  N         3.7917117050       16.6300539999        4.4537665278
  C         4.4560472019       16.1990192324        2.2710628047
  C         5.0357275045       13.9594938547        1.4010002568
  H         4.9454517682       12.3562036052        2.7997216788
  C        -0.4244860945       14.0487037267       11.7445487048
  C         2.0527842021       14.1743101861       12.6892433354
  C         0.2540327157       11.5058960341       13.9482326065
  C         0.2325332062       10.1263716827       14.1528112627
  H        -1.6938495387        9.3674067138        2.7141371064
  H        -1.3973866064       11.1353172773        2.2822053701
  C        -0.2813397765        9.6777218627        1.1598918118
  S         3.8170859149       18.0446771637        3.7065491929
  N         4.3264693646       17.5806458225        2.2578353425
  C         4.8328084050       15.4490120606        1.1569645004
  H         5.3924590699       13.3220219608        0.6127627484
  H        -0.2579587549       14.8611435727       10.9675303251
  H        -0.6922027980       14.4611347319       12.7100809213
  C        -1.5894171628       13.1515380430       11.2931953659
  H         2.3725259585       15.0084152548       12.0035691930
  H         1.6432063105       14.5883729909       13.6231355995
  C         3.4301303005       13.4565567178       12.9119706664
  H         0.1000760314       12.3100473644       14.6168438494
  C        -0.0775306509        9.5238681638       15.5242986682
  H         0.0865730654        8.7230700175        1.3193936072
  H         0.5403400121       10.3891209149        0.9130000745
  C        -1.2699610455        9.6060083726       -0.0184409770
  C         5.2011183214       16.1642248480       -0.0518183137
  H        -1.2178814150       12.4751757441       10.5425347420
  H        -1.9235525232       12.5793014028       12.1852528287
  C        -2.8518738172       13.8818955448       10.8504182808
  H         3.7457681744       12.8153443712       12.0443678455
  H         3.2342138857       12.8273248907       13.7845250529
  C         4.4495362131       14.4970000536       13.2560069738
  C        -0.0386215412        8.1036454345       15.7716607295
  C        -0.2658679422       10.3181454294       16.6709988265
  H        -1.2694324347        8.5499681383       -0.4150122407
  H        -2.3074692960        9.8658653642        0.1899958251
  C        -0.7749574881       10.5145582650       -1.1694177983
  H         4.8833779513       17.1911255003        0.0089986655
  C         5.4882109429       15.8407128988       -1.3763283583
  H        -2.5799468236       14.8315139468       10.3521199741
  H        -3.4521933842       14.1453577258       11.7638396246
  C        -3.7792871100       13.0498523571        9.8807422607
  H         4.6385298907       15.1645169930       12.4624070154
  H         4.1239455663       15.0763678227       14.1510886492
  C         5.7623585380       13.8629604595       13.5795485940
  N         0.2370449396        7.1041426437       14.8962247166
  C        -0.2125011002        7.5597731903       16.9999023507
  C        -0.5077374737        9.8257766267       17.9331569800
  H        -0.3156307857       11.3218049898       16.5270940774
  H        -1.3242007575       10.2865035613       -2.0795309615
  H         0.1726932110       10.0778610499       -1.5211923719
  H        -0.6554396755       11.6094731759       -0.8950664236
  S         5.7699058844       14.2675915227       -2.1311738132
  C         5.5809607051       17.0150879083       -2.3077085531
  H        -3.2228782223       12.8055669146        9.0124501797
  H        -3.9842439675       12.0644627011       10.2975398874
  C        -5.2274482270       13.5596191705        9.7315671790
  H         5.9356307833       13.0018950012       12.9601288005
  H         5.7580766586       13.4805628659       14.5948498950
  C         6.9545275334       14.7124320216       13.3784180714
  S         0.2769805536        5.6527268976       15.5076099943
  N        -0.1632382062        6.1767905092       16.9814429382
  C        -0.5366267557        8.3401948625       18.1787808703
  H        -0.6815534134       10.5220431368       18.7449622084
  C         5.9059074253       15.2013051715       -3.6867328183
  N         5.7505794711       16.5636052321       -3.5622932052
  O         5.5941757009       18.1479405197       -1.9491038401
  H        -5.8137687577       13.5290096587       10.6215321015
  H        -5.2181784960       14.6059351479        9.3822937544
  C        -6.0463656050       12.8102312209        8.7612332245
  H         7.8182991033       14.0936643233       13.4022077355
  H         6.9438590694       15.2207276679       12.3741055775
  C         7.0759896891       15.7604206936       14.4095759047
  C        -0.8263874955        7.7573625238       19.4454748931
  S         6.1890926110       14.4411761306       -5.3503567838
  C         5.6902178959       17.4240967228       -4.7344622059
  H        -5.4847024676       12.7452435031        7.8494325582
  H        -6.2491657852       11.8958558244        9.3031835560
  C        -7.2470268819       13.6613063125        8.4575699220
  H         7.2475422668       15.2763548985       15.3483791064
  H         6.1067386260       16.2702975394       14.6396632382
  C         8.1265001867       16.8790494061       14.2030133675
  H        -0.4688106404        6.7010375725       19.5579793505
  C        -1.4073186820        8.1345782860       20.6434302687
  H         6.4223805041       16.9241078741       -5.4323958237
  H         5.9562928970       18.4702190044       -4.5154795883
  C         4.2490732420       17.3317178726       -5.2275572855
  H        -7.7133850791       13.2826267968        7.5132032213
  H        -6.8724521632       14.5910084197        8.0526473665
  C        -8.2691125456       13.7707444018        9.5107164630
  H         9.0361059596       16.3395814057       14.1405435799
  H         8.0418071427       17.3706733236       13.2236256239
  C         8.1623460308       17.9181724211       15.2818698116
  S        -1.9579355713        9.6826859674       21.0367448082
  C        -1.4564827199        7.1515441595       21.7693093518
  H         3.5885104120       17.9173730826       -4.6414748798
  H         3.7519876912       16.3460229124       -5.1711864902
  H         4.2069362050       17.5265632150       -6.3222549065
  H        -8.5205349041       12.8113571040        9.9890930372
  H        -7.8524709627       14.3999913583       10.2322247535
  H        -9.1480120372       14.2637297379        9.1021646581
  H         7.7659448751       18.8107948671       14.8027509237
  H         7.6046849269       17.6945763810       16.1886033008
  H         9.1878331826       17.9317186396       15.6475309656
  C        -2.3655961633        9.0625416265       22.5813076897
  N        -2.0255498358        7.7705622132       22.8276574116
  O        -1.0471379815        6.0058599821       21.7133498466
  S        -2.8863240646       10.0345711169       23.9565714855
  C        -2.2880373112        6.9930201903       24.0154476343
  H        -2.6387611470        6.0450022891       23.7282790299
  H        -2.9034661850        7.5477509805       24.6683236682
  C        -0.9414827824        6.7154862419       24.7087004030
  H        -0.8969446850        7.2792317321       25.6163022844
  H        -0.0833827711        6.9459774347       24.0972119431
  H        -0.8260190016        5.6792887248       24.9112147300
