352
i =
  H        -3.2779113383       14.9310908845       16.2225401197
  C        -3.1338871160       13.8912388366       16.3594173584
  H        -4.1265029942       13.3814992696       16.5297542096
  C        -2.1501667432       13.5427070065       17.5269053878
  C        -2.6520143665       13.4080618418       14.9625078115
  C        -2.7350585868       13.2964615109       18.9081116027
  H        -1.5884559579       12.6321898174       17.2872660388
  H        -1.4042411906       14.3780304774       17.5439139601
  H        -2.7598030650       12.3164162062       14.7944379654
  H        -3.1881690500       13.9069051360       14.2245049907
  H        -1.5893571389       13.7446848571       14.7879256607
  C        -1.6048807952       13.1618957926       19.9896859224
  H        -3.3751040850       12.4445821487       19.0471341283
  H        -3.3982647961       14.0816697953       19.0476535085
  C        -2.0586245758       13.2325419113       21.3721732254
  H        -0.9938309668       12.2349767374       19.8416608611
  H        -0.9116255179       13.9646763433       19.7845932465
  C        -1.1010596072       12.6830824041       22.3611547578
  H        -2.9961113422       12.7801264159       21.3769783866
  H        -2.1699798786       14.3086716169       21.6260408804
  C         0.3299951796       13.2511857621       22.5246618014
  H        -1.4853315952       12.7123166303       23.3838923214
  H        -1.0434290888       11.6359798028       22.1017073881
  C         1.3396980134       12.5438659601       23.5173351796
  H         0.7510007751       13.3628624862       21.5037197898
  H         0.2928272890       14.2523092077       22.8332892375
  C         1.5996418502       11.1890920408       22.9694646438
  C         0.7752161485       11.9326941273       24.7574846170
  C         2.6215778401       13.4728062518       23.6666848742
  C         1.1863581408       10.1140992355       23.6952494133
  C         2.1610724825       10.7812074226       21.7416029009
  C         0.6677948070       10.5861630957       24.8992301123
  C         0.2931613008       12.6505028298       25.8814762645
  H         2.8088484829       14.0254656250       22.7892062484
  H         2.3336768758       14.1213109226       24.4484455470
  C         3.8565429887       12.6911314188       24.0833141369
  S         1.4263039607        8.5822855812       22.9437046075
  C         2.1555109162        9.4475166384       21.6213356884
  H         2.5506719231       11.5214520613       21.1164459137
  C         0.1686963511       10.0525853224       26.0552433349
  H         0.2238897610       13.7408726035       25.8557577082
  C        -0.1817275273       12.0644971785       27.0649328042
  H         4.0172175267       11.8032632536       23.5043682507
  H         3.5053696360       12.4741380289       25.1203531262
  C         5.1206272574       13.5128444908       24.3245040123
  C         2.7472755360        8.8132058096       20.3462369744
  C        -0.2475182013       10.7227812753       27.1916100019
  H         0.0299748978        8.9548497173       26.2081335461
  C        -0.6156364381       12.5549215596       28.2946597387
  H         5.7298378873       12.8905162384       24.9904869242
  H         4.7053932294       14.3788609651       24.9696223021
  C         5.7606747030       13.9817636369       22.9966190064
  C         2.6130856964        7.4279440003       20.0275327174
  C         3.1798226829        9.6660179743       19.2404076739
  C        -0.7402451416       10.1419392817       28.4939867767
  C        -0.9370486717       11.5075104956       29.1310556371
  S        -1.1116925998       14.0860210220       28.8988665613
  H         6.6181924670       14.6579809368       23.1978284276
  H         4.9630234447       14.5010440311       22.4646828341
  C         6.3955477646       12.8927981713       22.1494537582
  N         2.1238706745        6.4739587635       20.9155388898
  C         2.8594981332        6.9053304635       18.7249610608
  C         3.5012344589        9.1674629920       18.0006033341
  H         3.2196353220       10.7953192565       19.3425860321
  C         0.3492398333        9.3266738231       29.2229640686
  C        -2.0918170992        9.3890637845       28.3853981105
  C        -1.4527684537       11.9626641475       30.3562001272
  C        -1.4661998246       13.3331389994       30.4053580816
  H         7.2899864525       13.3484631413       21.7533173951
  H         6.7298774413       12.1178655248       22.8678994469
  C         5.5168198833       12.3722021169       21.0258844131
  S         2.0711452295        5.0203510373       20.1298939030
  N         2.5986724621        5.5586560068       18.6605542174
  C         3.2699370627        7.7228531678       17.7072516784
  H         3.7331871391        9.7918880878       17.1786362684
  H         0.7353639999        8.4815972109       28.5572012455
  H        -0.1373162477        8.8731958400       30.1085971286
  C         1.5976400560       10.1230371127       29.6644739412
  H        -1.8603986856        8.4426923460       27.9320771608
  H        -2.5103838529        8.9881960240       29.3292787042
  C        -3.0662127956       10.2034996145       27.6000603962
  H        -1.5089460369       11.2874890370       31.1780677329
  C        -1.6697819569       14.1698916300       31.6102877872
  H         4.5195496229       12.3566753932       21.3022101408
  H         5.8931989635       11.3738381673       20.8471988593
  C         5.5705018624       13.2371855990       19.7027977829
  C         3.4447253188        7.1060690007       16.3884993733
  H         2.0096491024       10.6976923256       28.8673734787
  H         1.5800380720       10.7364254702       30.6357923121
  C         2.7888326421        9.2234534241       30.0579002057
  H        -2.6550712417       10.4173264871       26.6008958369
  H        -3.3087151792       11.1438801899       28.1173766713
  C        -4.3865371831        9.4436571954       27.3060184206
  C        -1.6950568567       15.6067487218       31.6549637637
  C        -1.7584958436       13.5202266442       32.9726615417
  H         4.7439616021       12.7735172575       19.1564534838
  H         5.2154271931       14.2549864300       19.8754133643
  C         6.8923363296       13.1765857678       18.8857284161
  H         3.5832989687        6.0514616017       16.4428439476
  C         3.7262748407        7.5824045344       15.1132781501
  H         3.2297076164        8.7614097469       29.1763204882
  H         2.5283833554        8.4240032863       30.7177805456
  C         3.9784655187        9.8912234780       30.6138851210
  H        -4.2471491908        8.7475458373       26.4820216570
  H        -4.6921976507        8.9597180531       28.1642853488
  C        -5.3668242200       10.4044465760       26.7669792912
  N        -1.4589405203       16.4060660796       30.5352282421
  C        -2.0373072353       16.3437316309       32.8095744153
  C        -2.0529869535       14.2527385730       34.1007922618
  H        -1.6785608274       12.4837509425       33.0853899072
  H         7.1628572566       14.1273358264       18.4511771744
  H         7.6938053886       12.7937912704       19.4844861279
  H         6.7865313362       12.4056958311       18.1105998948
  S         3.8488974944        9.2351872203       14.6215309773
  C         3.9120605228        6.6161547180       13.9810789604
  H         4.3170655184       10.9062140136       30.2594015478
  H         3.6557555418       10.1620376859       31.6622470251
  C         5.2408883511        9.1606831342       30.5629533553
  H        -5.0500447911       11.0382162000       25.9360105788
  H        -5.7571987502       11.0446801678       27.5677256539
  C        -6.6243312638        9.6040851981       26.2768459937
  S        -1.6456735255       17.9732970005       31.0346178660
  N        -2.1028593945       17.6944585979       32.5946684201
  C        -2.3055048497       15.7352884979       34.0756169516
  H        -2.1569664253       13.7446805162       35.0200301130
  C         4.1334865003        8.6264886524       13.0165843774
  N         4.2570863320        7.2636578418       12.8847929826
  O         3.7660714994        5.4102738222       13.9812873695
  H         6.1130179302        9.7359867732       30.8497855580
  H         5.4884314390        9.0314926775       29.5660566186
  C         5.2768997674        7.7963674699       31.3259648512
  H        -6.3167740358        9.2288928344       25.3060248272
  H        -6.8728892963        8.7703983225       27.0086409080
  C        -7.9243413379       10.4805766827       26.2065366250
  C        -2.6612500862       16.5636542536       35.1504482612
  S         4.6781902349        9.5748461108       11.6820114336
  C         4.2982091785        6.6039545561       11.5681452800
  H         6.1626617159        7.7629985627       31.9210146700
  H         4.4715565663        7.6448241977       31.9662278985
  C         5.3472418208        6.6060166110       30.3512837771
  H        -7.6448177585       11.4473154362       25.7869426555
  H        -8.4299401641       10.6030812901       27.1545236436
  C        -8.9760369631        9.8959742278       25.1597383272
  H        -2.3691784128       17.5980857480       34.9793638804
  C        -3.1841835752       16.3591305642       36.4268848325
  H         4.7641313454        7.1960261175       10.8165595374
  H         4.8762825617        5.6469405263       11.5606349994
  C         2.7967240742        6.5033835996       11.0928593072
  H         4.4094345355        6.6430686180       29.7156370097
  H         5.2547879683        5.6372511066       30.8101175883
  C         6.4811229546        6.5376191942       29.4294769105
  H        -9.2025431604       10.5490963807       24.3444770542
  H        -8.5717076577        8.9809293985       24.7564598500
  C       -10.3330364908        9.8228727509       25.7789545042
  S        -3.6587995732       14.8832682277       37.2010498592
  C        -3.3869045893       17.5595534563       37.1742787202
  H         2.5928284877        5.4517650825       10.7557851891
  H         2.0826305599        6.7212148110       11.8714930163
  H         2.6019967712        7.2641566722       10.2800913333
  H         7.4370282329        6.2671665332       29.9733957167
  H         6.7791347180        7.4173387421       28.8076560964
  H         6.2214661622        5.7698829238       28.8056751541
  H       -10.8037681119       10.8332241491       25.8877234473
  H       -10.3182760057        9.2546118136       26.6771364809
  H       -10.9384448639        9.0620397995       25.1692672810
  C        -3.9939432040       15.8905379397       38.6486257706
  N        -3.8267358102       17.1785479998       38.4348437692
  O        -3.2372054823       18.7201927742       36.7974987889
  S        -4.5283841833       15.2942590837       40.2102696245
  C        -3.9240392161       18.1445623317       39.5471307340
  H        -4.2816079292       18.9967041094       39.0254466817
  H        -4.7203994466       17.9067128074       40.2495179564
  C        -2.6227702254       18.3106357712       40.2197778837
  H        -2.6216576452       17.7186507900       41.1791337530
  H        -1.8599989622       17.8179237556       39.6534418378
  H        -2.4018969697       19.3122531942       40.5133850347
  H         7.3614044765       11.3855239880        3.6166506597
  C         8.0506382363       10.6347869727        3.7540201153
  H         7.4126035814        9.7834852269        3.8745887016
  C         8.9599517663       10.7736342647        5.0294684291
  C         8.9264218119       10.4650214400        2.5181071612
  C         8.1216679753       10.8210316208        6.2705683697
  H         9.7380079181        9.9675460416        5.1994471541
  H         9.5408878390       11.6632035806        4.9323655248
  H         9.3257693864       11.3501204930        2.1420351114
  H         8.2923900581       10.1630701399        1.7133909882
  H         9.6763782431        9.6515791217        2.5898851161
  C         7.2706425394        9.5727117706        6.5840114092
  H         8.7111904520       10.9139777935        7.1897667973
  H         7.5344622085       11.7771727543        6.2737492952
  C         6.6711733393        9.4441293257        8.0083568853
  H         7.9031412634        8.7083079773        6.5055727533
  H         6.4634392217        9.5739438688        5.8484830786
  C         5.3172005825       10.2352129029        8.0278741161
  H         7.3892287030        9.7846047086        8.7621593863
  H         6.6141978803        8.3682997319        8.1264786164
  C         4.1410265021        9.4453987886        7.4478141061
  H         5.1257841691       10.5664101469        9.0397547396
  H         5.5465376333       11.0487554117        7.3415117644
  C         2.9130565846       10.3095710789        7.1037255849
  H         3.8304991508        8.6126413753        8.1049487647
  H         4.4152807893        9.0158407602        6.5122340983
  C         3.3010073896       11.7470879594        6.4970985441
  C         2.4684749500       11.0209942627        8.3918309805
  C         1.7766933265        9.6315606494        6.3140064044
  C         2.8396652785       12.8204609315        7.1968691088
  C         3.8179890580       12.1230865866        5.2218639571
  C         2.4012244495       12.3631460766        8.4455650484
  C         1.9432532744       10.4708121922        9.5921048233
  H         2.2155828842        9.3612308321        5.3445805889
  H         1.4888566103        8.6283645716        6.7294686564
  C         0.5235206381       10.5689218000        6.1413228774
  S         3.1425126299       14.3163530756        6.3847622173
  C         3.7748938459       13.4645613674        5.0171449065
  H         4.1287144668       11.3999062014        4.4955545235
  C         1.9995619619       13.0709761980        9.5408678684
  H         2.0694879879        9.4007833518        9.5237404362
  C         1.5936270192       11.1804658999       10.6995959503
  H         0.7401871693       11.6424189431        5.9707783943
  H        -0.0666795546       10.5880605437        7.0406734279
  C        -0.3862488060       10.1400349544        5.0208681365
  C         4.2632796908       14.1899914522        3.7883391334
  C         1.5752330875       12.5060038282       10.7793530034
  H         2.0620777389       14.1741901586        9.4972479490
  C         1.2417437281       10.7460843098       11.9380025928
  H        -1.1675439116       10.8835989201        4.9923899415
  H        -0.8731425875        9.1988676951        5.1405694493
  C         0.2878909601       10.0849970583        3.6059806761
  C         4.3155087265       15.5904821399        3.5972145913
  C         4.6834628399       13.3578818839        2.5787479805
  C         1.0826758594       13.2021648260       12.0056761314
  C         0.9002044083       11.8588951151       12.7401118298
  S         0.9791520043        9.2456022109       12.6476169568
  H         0.5240046490        9.0179200362        3.4872599990
  H         1.1188026683       10.8097601928        3.4185726808
  C        -0.8566231592       10.2312149769        2.5240323499
  N         4.0178586251       16.5159903789        4.6396387469
  C         4.6510163836       16.1520002224        2.4085531739
  C         5.1235494686       13.9851282407        1.3650123904
  H         4.8157244270       12.3230655132        2.5595300535
  C        -0.2510421940       13.9984905167       11.8790321297
  C         2.3122149019       13.9286355601       12.7041695427
  C         0.5300151847       11.3794849667       14.0294903488
  C         0.5970737129       10.0093623354       14.1194485708
  H        -1.6083905694        9.4446753924        2.5357603310
  H        -1.3172293658       11.2442071947        2.5556077876
  C        -0.2819560232       10.2785025980        1.0792377101
  S         4.2169126633       17.9900759910        4.0762239772
  N         4.5460299065       17.5379168494        2.5419349091
  C         5.0503555857       15.4549823993        1.2134223514
  H         5.6275003412       13.3712356911        0.7037371242
  H        -0.0269651430       15.0116145550       11.4285889408
  H        -0.6334506022       14.1261287185       12.9106139605
  C        -1.2775622746       13.3154008794       10.9435773280
  H         2.5916213684       14.8937003769       12.2185093227
  H         2.0789148660       14.1928965099       13.7149773580
  C         3.4991190537       13.0241134611       13.0138660378
  H         0.1543736045       12.1316494509       14.7528950782
  C         0.3869584245        9.2787469858       15.4503710666
  H         0.3490677569        9.4081514901        0.9673661003
  H         0.3213227928       11.0888258774        1.1006988804
  C        -1.2571138588       10.1644717234       -0.0491425593
  C         5.3775807724       16.2315076114        0.0481709508
  H        -0.8976300480       13.1742599650        9.8903883024
  H        -1.4194165054       12.3165089115       11.3702938797
  C        -2.5869228489       14.0753365614       11.0141429566
  H         3.9299543554       12.5638791108       12.1501577149
  H         3.1868200902       12.1912841889       13.6570762739
  C         4.6420136380       13.8299894555       13.7835807240
  C         0.3328804796        7.8668537343       15.5843492820
  C         0.2403490780       10.0495119444       16.6991812272
  H        -1.6396637655        9.1998282271       -0.0933320348
  H        -2.0794300837       10.8331887548        0.1139597161
  C        -0.5084228102       10.3671945858       -1.3922662438
  H         5.1392834712       17.2804099997        0.1610020471
  C         5.6108275875       15.8293583134       -1.2347934348
  H        -2.3874627845       15.0856479615       11.3138184516
  H        -3.1516753581       13.6917361651       11.8497344177
  C        -3.4951685398       13.8884532231        9.7092128101
  H         5.0643284256       14.6544654295       13.1659393317
  H         4.1505844133       14.2344312406       14.6413758147
  C         5.8194619205       12.8995709433       14.2492775927
  N         0.4395331539        6.9371081607       14.5261839262
  C         0.0282031491        7.2204902074       16.7300823130
  C         0.0041376861        9.3929075896       17.8776924654
  H         0.3493254853       11.1122287064       16.6655889379
  H        -1.0524768354        9.7370465979       -2.0941247599
  H         0.5710586116       10.1141203398       -1.2656014974
  H        -0.5214478873       11.4538492495       -1.7696020171
  S         5.9093037123       14.1957472834       -1.8458462957
  C         5.7355421427       16.8761015498       -2.2643825785
  H        -3.2176310680       14.6026063520        8.9367343921
  H        -3.2669637551       12.8382579499        9.3316768263
  C        -4.9865588864       13.8609751339        9.9603848857
  H         6.3950882965       12.5315912954       13.3325327581
  H         5.4651056076       11.9725339919       14.7604323235
  C         6.6811502871       13.6587688575       15.2648859048
  S         0.1973798112        5.4698049004       15.0972316021
  N        -0.1439677010        5.8536816844       16.6116359714
  C        -0.1013880158        7.9158063048       17.9569706936
  H        -0.0324505706        9.9921074944       18.7912964237
  C         6.1307410948       14.9601872950       -3.4513954521
  N         6.0007993803       16.2939676175       -3.4252840678
  O         5.7266315103       18.0508406580       -1.9751499798
  H        -5.1708917420       13.4832358064       10.9822391483
  H        -5.3820752153       14.8826395226        9.9976062013
  C        -5.6683811767       13.0155954321        8.8983392280
  H         6.1131282957       14.0992492584       16.0729661574
  H         7.3074568154       12.8971684486       15.6369369667
  C         7.6066992301       14.6832908991       14.6318326021
  C        -0.5047686198        7.1645513929       19.0946530223
  S         6.2412591780       14.1808310963       -5.0843933126
  C         6.2489241887       17.0629890275       -4.6111670454
  H        -4.9723200620       12.9630220531        8.1041108506
  H        -5.7671895782       12.0423241459        9.3654668897
  C        -6.9362924103       13.7181926780        8.3867024581
  H         7.5670887408       14.6619727603       13.5329104465
  H         8.4824956636       14.2411475756       14.9944302760
  C         7.4863053444       15.9699375117       15.2651953999
  H        -0.2350436471        6.1392092466       18.9914116894
  C        -1.1087961082        7.6153656507       20.2128010484
  H         7.0518307022       16.6996979001       -5.2149770997
  H         6.5725800402       18.0575176133       -4.1796275951
  C         4.9830467619       17.1576220198       -5.5137123106
  H        -7.4208310611       13.1313217520        7.6070331066
  H        -6.6110396914       14.7170897103        8.0251908585
  C        -7.9742846314       13.7281019157        9.5238730806
  H         6.6017548512       16.5335406990       15.0817238910
  H         7.6616459023       15.7945206681       16.3617673925
  C         8.5028850802       17.0295604887       14.7557798158
  S        -1.6259566113        9.1955715062       20.5230573893
  C        -1.4445342976        6.5737156222       21.2302189331
  H         5.0044647438       17.9956509138       -6.2537564662
  H         4.1387582326       17.3019978871       -4.8480343588
  H         4.8191582237       16.2359957844       -6.1141299964
  H        -8.7502344012       14.4299287898        9.3561687038
  H        -8.4232265714       12.7354515052        9.6474370273
  H        -7.5175273993       14.0989208957       10.4693232520
  H         8.0095845364       17.8379548809       14.2961530639
  H         9.1673206704       17.4298524081       15.5077724738
  H         9.2130034225       16.5616883009       14.1449547206
  C        -2.3065909192        8.5502073287       22.0170482070
  N        -2.0372509520        7.2115062653       22.2784300328
  O        -1.0886320724        5.3900946670       21.1682918632
  S        -2.8896005405        9.5518516551       23.2811212726
  C        -2.4017251964        6.4194294743       23.4460114706
  H        -2.8459078295        5.4305383912       23.1746851712
  H        -3.0706842833        6.8750054608       24.1293826007
  C        -1.1148667121        6.1333785431       24.2023684755
  H        -1.2316199343        6.2461414053       25.2601201158
  H        -0.3462393438        6.8565811687       23.9778389480
  H        -0.8460351093        5.0985327470       23.9979211004
