352
i =
  H        -3.9766866520       14.0320470046       16.1814740731
  C        -3.4921914026       13.0487478615       16.3516607865
  H        -4.2079228527       12.3591454190       16.7549424025
  C        -2.3125664672       13.2290442825       17.2236903512
  C        -3.0734975417       12.6720412078       14.9311924045
  C        -2.8337614749       13.3873924278       18.6492419386
  H        -1.7225924455       12.3052756164       17.1740435653
  H        -1.7600514470       14.0279690311       16.8564473780
  H        -2.1505734043       12.1748897399       14.8996929674
  H        -3.7643503534       11.9172049616       14.4367999657
  H        -2.9656548624       13.4720733328       14.2245640276
  C        -1.6433653367       13.3863029358       19.6805249290
  H        -3.6674050308       12.7247897017       18.8876768024
  H        -3.2367171465       14.3567277564       18.6156955253
  C        -2.1658559556       13.3607479581       21.1518997148
  H        -0.9348764333       12.5659106809       19.4479680441
  H        -1.0370779909       14.2718203564       19.4937244948
  C        -1.3285906100       12.6278779481       22.2408705210
  H        -3.1480168271       12.8363665333       21.0488049283
  H        -2.4182879338       14.3628825093       21.4703076463
  C         0.0004973225       13.4393565313       22.5324750774
  H        -1.9723140442       12.3283733858       23.0562455933
  H        -1.1800761974       11.6628765236       21.7256972204
  C         1.2048397471       12.6855807367       23.1463154138
  H         0.4466274452       13.7544924702       21.5744792443
  H        -0.2350160328       14.4142723966       23.0492297273
  C         1.4935481816       11.3905910219       22.4237187804
  C         0.8370715261       12.0258202486       24.4611682394
  C         2.4686664703       13.5940578144       23.2623913667
  C         1.3652210789       10.2801479779       23.2787194013
  C         1.8890768669       10.9732642230       21.1260212020
  C         0.9300332709       10.7008928001       24.5900665167
  C         0.4316558228       12.7001879621       25.6415397166
  H         2.7694074737       14.0832229215       22.2862310337
  H         2.1947527902       14.3158159547       23.9577009874
  C         3.7469220350       12.9840967910       23.7611363718
  S         1.7598363896        8.7886757545       22.4943745954
  C         2.0701562457        9.6594798884       21.0032398795
  H         2.0201556559       11.7211890236       20.3059402752
  C         0.4361274470       10.1097678633       25.6813485270
  H         0.5113743218       13.7758200215       25.5703129520
  C         0.0997225660       12.1188068702       26.7807804833
  H         4.2054889542       12.3277922523       23.0615293576
  H         3.6252144545       12.4206448440       24.6432113972
  C         4.8570250965       14.0281879080       24.1207226375
  C         2.4966081139        8.9312847414       19.7291938974
  C         0.1681763443       10.7774020436       26.9039182909
  H         0.3942570392        9.0311740479       25.7463844879
  C        -0.3358476325       12.5484429839       27.9720003666
  H         5.5620895773       13.5038128581       24.7370161631
  H         4.5569105970       14.7694058306       24.8637953016
  C         5.3911911344       14.7854835319       22.9468658282
  C         2.6978760676        7.6143736398       19.4732119379
  C         2.9917262122        9.7628684650       18.5921149845
  C        -0.2855487423       10.1532269281       28.1689822215
  C        -0.5299897338       11.4930129385       28.8871728324
  S        -0.6296874222       14.1702169351       28.6507927214
  H         6.0481604508       15.5437688505       23.4099409999
  H         4.6381461641       15.4149452607       22.4114064270
  C         6.1472950301       14.0258336521       21.8487758521
  N         2.4310587389        6.6082648044       20.4303383645
  C         2.9900632530        7.0591383577       18.2296966486
  C         3.4027221844        9.2451222978       17.3681120137
  H         3.0869098968       10.8512974888       18.7671614277
  C         0.8053099086        9.3072401630       28.8804072601
  C        -1.5808161442        9.3570332577       28.1057589987
  C        -0.8596812831       11.9952349090       30.1537418294
  C        -1.0843153092       13.3505958065       30.1159478252
  H         6.7613133005       14.7912269605       21.4805193562
  H         6.7222052211       13.2456224982       22.2439370396
  C         5.3649660226       13.4062349594       20.7068955051
  S         2.6781472815        5.1759383454       19.7639745910
  N         3.1018070641        5.6778979628       18.2766839088
  C         3.3232732419        7.7777953404       17.0626855313
  H         3.7843290566        9.9015214781       16.6295693807
  H         1.1045936986        8.4521884840       28.2618210545
  H         0.2523147663        8.9533677602       29.7755574036
  C         2.1515666696        9.9231416098       29.1068754942
  H        -1.4148101620        8.3761325474       27.4454633428
  H        -2.0046599861        9.0639598070       29.0870407808
  C        -2.7172269701       10.2324167567       27.4777269360
  H        -1.0651705128       11.2655687568       30.8892333121
  C        -1.3318286087       14.2050583509       31.3841461667
  H         4.4557164216       13.9490303793       20.4772137009
  H         5.0779301354       12.4337216230       21.1142008983
  C         6.1267282156       13.1735262561       19.4873273556
  C         3.4626065829        7.0324944855       15.8405060961
  H         2.6201836377       10.3390013259       28.1806988296
  H         1.9515475170       10.8549726865       29.6999849124
  C         3.1838343960        9.0374258600       29.7868421624
  H        -2.4827512491       10.6088980338       26.5155300212
  H        -2.8831314182       11.1576570951       28.0856702175
  C        -4.0563824117        9.4825864400       27.4749649920
  C        -1.4428894226       15.5777460611       31.5135988270
  C        -1.8338320587       13.4753123155       32.5903728114
  H         5.5408985319       12.4517453667       18.9442344985
  H         6.1401344031       14.0702786603       18.9225829843
  C         7.4895554544       12.6510959261       19.7905092261
  H         3.2132465405        5.9864618859       15.9698481610
  C         3.7155823758        7.4607550415       14.6000932514
  H         3.5477401402        8.3995658995       28.9894141371
  H         2.5739362526        8.4655483683       30.4492589774
  C         4.4072459750        9.5870249970       30.4195866218
  H        -4.0144363557        8.4760751798       26.9863341435
  H        -4.3124779022        9.2525322613       28.5444722772
  C        -5.2049057806       10.2955828944       26.7793458052
  N        -1.1449485130       16.4905355656       30.5182743237
  C        -1.7252429591       16.2262756757       32.7283584525
  C        -2.0963358031       14.1074131709       33.7827148803
  H        -1.9437072045       12.3320936720       32.5804959084
  H         7.9522150281       12.2016512587       18.8693604096
  H         8.1696699936       13.3474254306       20.2811102643
  H         7.4580353110       11.8279493178       20.4792659279
  S         3.9320207866        9.0935500687       14.2120949692
  C         3.6886278952        6.5219416404       13.4717074559
  H         4.4498095059       10.5610309774       29.9170061012
  H         4.0906653913        9.8890173649       31.4324054105
  C         5.5580168977        8.6373947038       30.5838751491
  H        -4.7018990557       10.8456204267       25.9829135318
  H        -5.6833462390       10.9719039935       27.4260089730
  C        -6.2149983752        9.3975800441       26.0675430529
  S        -1.3530173089       17.9940246882       31.0471884023
  N        -1.8052679207       17.5941330206       32.5526469424
  C        -2.0311808903       15.6088592563       33.9930294992
  H        -2.4330001572       13.4971250580       34.6180794575
  C         4.2398254379        8.4927012531       12.5503828619
  N         4.1462937946        7.1690405587       12.3901084388
  O         3.6551907342        5.3101115962       13.6129703001
  H         6.4039721534        9.2786931701       30.8462887584
  H         5.8431433085        8.2556694952       29.6495843884
  C         5.2054902615        7.5268344922       31.5248811149
  H        -5.7023464651        8.8544262068       25.2763049883
  H        -6.8172492876        8.8714348736       26.8126224788
  C        -7.2255366962       10.3314708904       25.3905364836
  C        -2.3417317062       16.4223740837       35.2023933050
  S         4.6156719739        9.4748391753       11.1035234436
  C         4.2735606475        6.6035839686       11.0525368644
  H         5.5266023078        7.7542955986       32.5961421661
  H         4.1587662042        7.3317245964       31.5518707925
  C         5.7100845640        6.1585182795       31.0036170320
  H        -6.6680311188       10.6284630973       24.3930709448
  H        -7.3434886773       11.3300019059       25.8700672551
  C        -8.6119966009        9.6585003361       25.1506441577
  H        -2.1207124453       17.4178346936       35.1266591607
  C        -2.9062516631       16.0812240264       36.3731006473
  H         5.1046901792        7.0185091160       10.4177762480
  H         4.5861353005        5.5491527912       11.2383690933
  C         2.8989478996        6.6149115719       10.4762124359
  H         5.2777160221        5.9399243535       30.0702128805
  H         5.2378244027        5.5051871599       31.6657478084
  C         7.2273921411        5.8564743928       30.8450614204
  H        -8.8550640134        9.8175792728       24.0585301845
  H        -8.5504056023        8.5455971753       25.2535712957
  C        -9.6622746402       10.0905860092       26.1376297309
  S        -3.5257883678       14.5342740068       36.8092268380
  C        -3.0040637709       17.0410831393       37.5126417761
  H         2.5679461644        5.6339604328       10.2830863443
  H         2.2378163364        7.2348382522       11.0938165776
  H         2.9789759531        7.0644161555        9.5074319674
  H         7.6612229109        6.6370399196       30.3033857709
  H         7.3871572777        4.9806650817       30.1362077220
  H         7.7106222829        5.7276087675       31.8724339618
  H        -9.3287332869       10.7029012946       26.9416176458
  H       -10.1612385543        9.2277221912       26.6449529474
  H       -10.5212928456       10.6074385299       25.6207324374
  C        -3.7194656559       15.1079721439       38.4236336117
  N        -3.5435474516       16.4660978710       38.5792835206
  O        -2.4082521949       18.1192380747       37.4495189904
  S        -4.6800602419       14.1950314452       39.6773838435
  C        -3.6542932025       17.2557281222       39.8675797588
  H        -3.8085394965       18.3874024023       39.6874101354
  H        -4.5190745531       16.8941095340       40.4795522594
  C        -2.3042155556       17.0560519279       40.5325493764
  H        -1.9279664975       16.1289178500       40.1138471524
  H        -1.7409042065       17.9367642764       40.1665686613
  H        -2.2124697522       17.0617203493       41.6216462179
  H         7.6084022022       11.1690727582        3.6730138612
  C         8.1408098694       10.2156052370        3.6924803920
  H         7.4699513380        9.3547011431        3.8211020695
  C         9.1610144947       10.1823660848        4.8682529800
  C         8.9366306826        9.9928448073        2.4100929457
  C         8.4393948412       10.4803706759        6.2274664486
  H         9.4938201031        9.1535597939        4.9920465728
  H        10.0407328423       10.8355473116        4.6586643879
  H         9.9455733493       10.4803430764        2.4335072272
  H         8.4075975925       10.5973467903        1.6701095989
  H         9.0115194820        8.9710576862        2.2103256456
  C         7.5873700576        9.2702041096        6.7216262583
  H         9.1418973672       10.7538447875        6.9905274405
  H         7.8881570165       11.3786316915        6.0891935075
  C         6.8208258054        9.4320366808        7.9698847459
  H         8.2376836063        8.4143674261        6.9016575093
  H         6.8751907538        8.9661336966        6.0008834256
  C         5.5922298592       10.2597245096        7.7727289819
  H         7.4391120955        9.8644535245        8.7341130418
  H         6.4384253644        8.4886958679        8.3802194724
  C         4.3556557274        9.4434701456        7.3166428468
  H         5.2188799102       10.7097150568        8.7039119882
  H         5.8347296006       11.1028059511        7.0941571017
  C         3.1156304293       10.3642490178        7.0736440445
  H         4.0509997880        8.7187225692        8.0285978708
  H         4.6315316471        8.9237332311        6.3934805815
  C         3.3325501859       11.6486876336        6.3810023838
  C         2.4777354177       11.0864116838        8.2914794959
  C         2.0032286936        9.5524084047        6.2990359598
  C         3.1541716374       12.7526564776        7.2126218714
  C         3.8919598206       11.9513994272        5.1563788347
  C         2.6500610221       12.4199624716        8.4250857128
  C         1.9597775827       10.4907548096        9.3925916838
  H         2.3962809716        9.1789784139        5.3914703782
  H         1.8369107526        8.6699185754        6.8866365947
  C         0.7237578337       10.3446211996        6.0549330115
  S         3.4626937336       14.2457737692        6.3833514393
  C         4.0308946121       13.3125237450        4.9917073378
  H         4.1584279743       11.1933881193        4.4463638723
  C         2.2530668330       13.0560661434        9.5482949405
  H         1.9993268479        9.4226372295        9.2906611244
  C         1.6314098276       11.1173822821       10.5374374879
  H         0.9116584764       11.3527238222        5.9361083535
  H        -0.0007146408       10.5059333864        6.9118255986
  C        -0.2251345647        9.8879975685        4.9201727715
  C         4.4913229160       14.0123556335        3.7173337669
  C         1.7326787438       12.4628637584       10.6909940820
  H         2.3626479344       14.1091642643        9.6431130187
  C         1.2027581291       10.7034935618       11.7662613407
  H        -1.0926498515       10.5385088586        4.8495427577
  H        -0.7942500877        9.0454461865        5.2024470390
  C         0.3453556505        9.7679292616        3.4995536538
  C         4.4824493670       15.3726449811        3.4820174198
  C         4.7915754319       13.1853972380        2.5671467633
  C         1.3372271828       13.0986320146       11.9821120935
  C         1.1012225864       11.7206153362       12.6716166091
  S         0.8607986828        9.2192117916       12.5251045192
  H         0.6067129334        8.7020282870        3.4274502315
  H         1.2777770705       10.3298262036        3.3192890417
  C        -0.6773785534        9.9150999341        2.4463302866
  N         4.0904707184       16.4119811314        4.3258492236
  C         4.8203425322       15.9112483264        2.2696688818
  C         5.2596543595       13.6646276784        1.3723176866
  H         4.7826635495       12.0939622296        2.7231551130
  C         0.0730246938       13.9039909870       11.9351590293
  C         2.4591505267       13.8965209677       12.6668446826
  C         0.7099730071       11.3030880667       13.9630128564
  C         0.5775695216        9.9464347006       14.0468482792
  H        -1.3722449071        9.0739234712        2.3823789400
  H        -1.1261965698       10.8439744540        2.6566417934
  C        -0.0312213648       10.0410940498        1.0788117202
  S         4.3061738052       17.8769972425        3.5658423525
  N         4.8000498200       17.2639594783        2.2024915638
  C         5.1950018043       15.1354989803        1.1177819860
  H         5.5379940818       13.0368390246        0.5113106316
  H         0.2140746548       14.7011203461       11.1869425934
  H        -0.1020830479       14.2329202395       12.9461816947
  C        -1.1777431333       13.1138594270       11.5118037494
  H         3.0479191632       14.5034035070       11.9954066478
  H         2.0310835600       14.4050330611       13.5363205118
  C         3.4168536416       12.9704304464       13.3344672694
  H         0.5958705859       12.0691590259       14.7536171514
  C         0.3246143321        9.1918994328       15.3547455102
  H         0.7263332686        9.2189854967        1.1187857993
  H         0.4971191157       10.9400086014        1.0868051033
  C        -0.9709838728        9.8971567509       -0.1579085444
  C         5.5305138341       15.8187724372       -0.0426289568
  H        -0.8328285013       12.3715458772       10.7750465624
  H        -1.5756090814       12.5756478269       12.4085793793
  C        -2.2027922484       13.9589639443       10.8040344246
  H         3.6791813499       12.1061168761       12.7768187800
  H         3.0662944536       12.5642000049       14.2810334472
  C         4.6848593492       13.6907840430       13.6273136071
  C         0.2244247288        7.7965897006       15.4390243595
  C         0.1104242138        9.9396223446       16.6069980545
  H        -1.1500561283        8.7841482437       -0.1999077018
  H        -1.9546328067       10.4259899513        0.0271247607
  C        -0.3425135265       10.5556842069       -1.4101213513
  H         5.5962836715       16.9010743641        0.0060082687
  C         5.8634155485       15.4170804562       -1.3090640440
  H        -1.7858245366       14.6306743190       10.0164062402
  H        -2.6389535924       14.6088588180       11.5566591928
  C        -3.2488912307       13.1178749496       10.1365833943
  H         4.9888177591       14.1930203086       12.6775147584
  H         4.5431525209       14.5102227190       14.3323190747
  C         5.8507119854       12.7248049121       14.1056498351
  N         0.4648065482        6.9090039303       14.4144578556
  C        -0.0428564689        7.1388490650       16.6270716430
  C        -0.2340174989        9.3161123884       17.8225883822
  H         0.0916319467       10.9634672146       16.6072102588
  H         0.6427727740       10.1496354847       -1.7401282484
  H        -0.3001699007       11.6452192858       -1.3588012437
  H        -0.9035348874       10.2311448982       -2.2822877158
  S         6.0065267986       13.8534607119       -1.8230973481
  C         5.9132903633       16.5059731831       -2.3625972787
  H        -3.2874851972       13.2785870749        9.0443928114
  H        -3.0390868245       12.0890692941       10.2852685487
  C        -4.7154625918       13.3364224795       10.7120421592
  H         6.2971442362       12.3091326644       13.2209664252
  H         5.4409681196       11.9336498432       14.6819788127
  C         6.9990444781       13.3636714412       14.8857807222
  S         0.4011162063        5.3808945157       14.9726776121
  N         0.0557250347        5.7834364269       16.5035338782
  C        -0.2219173203        7.8075790131       17.8785537198
  H        -0.4298992983        9.8828506948       18.6857699368
  C         6.0564215066       14.5598301251       -3.4281813316
  N         6.1744449476       15.9413950568       -3.5139551152
  O         6.0606235252       17.6469691321       -2.1277037204
  H        -4.6660172020       12.9828060577       11.7358355737
  H        -4.9064420730       14.4257717785       10.7550953532
  C        -5.8316524615       12.6444016157        9.8540840396
  H         6.6260659989       13.8429573929       15.8094268483
  H         7.7340816159       12.6038714558       15.1598025366
  C         7.7311994521       14.4350994777       13.9556495629
  C        -0.4952504388        7.0797810437       19.0726371606
  S         6.5351118504       13.6396144733       -4.7916045176
  C         6.1372080075       16.6121085389       -4.7747824027
  H        -5.3867569188       11.8812584798        9.2075960843
  H        -6.4727259810       12.1283393008       10.5153645720
  C        -6.6462195018       13.6153258151        8.9710123991
  H         7.6427493870       14.1295578128       12.8155388772
  H         8.8008668582       14.3539894921       14.0059768004
  C         7.2138713718       15.8441501065       14.1810538065
  H        -0.2093160057        6.0908520377       19.1034123281
  C        -1.1453621215        7.4315441410       20.2881011177
  H         6.6289860432       16.1820535803       -5.5751363530
  H         6.5649980947       17.6435261487       -4.6254842162
  C         4.7370884137       16.8910575033       -5.2594491230
  H        -6.7430278740       13.0986859666        7.9939072332
  H        -6.0908709900       14.4892195926        8.8174879955
  C        -8.0198946412       13.9067622641        9.5433783748
  H         6.9108852785       16.1309995459       13.1094584501
  H         6.2854515834       15.9040758812       14.6963223541
  C         8.3457187426       16.7538494457       14.7864590458
  S        -1.8073333349        8.9914631474       20.6198224212
  C        -1.1582136786        6.5329703847       21.4322199577
  H         4.7031898247       17.8012232004       -5.8176560246
  H         4.0246235122       16.8576847626       -4.3786671848
  H         4.4555622738       16.0880844289       -5.9187418673
  H        -8.6916789802       14.5385739355        8.9385260207
  H        -8.5287243900       12.9892028536        9.7814930911
  H        -7.7673916541       14.5659749139       10.4081248357
  H         9.3382896009       16.4362054162       14.4598094568
  H         8.3610413883       17.7411544886       14.4063929512
  H         8.4031816939       16.7965766550       15.8390811942
  C        -2.0614666076        8.4409098866       22.2579881171
  N        -1.8089131587        7.1281478447       22.4290664995
  O        -0.7389994973        5.3690638142       21.3315734378
  S        -2.6632961934        9.3914773357       23.6119942555
  C        -1.9540099149        6.4213560475       23.7548176146
  H        -2.1084841107        5.2839646711       23.6870241679
  H        -2.7787762356        6.7908236476       24.2687964740
  C        -0.6955942808        6.6778303916       24.6513960192
  H        -0.9256194236        7.2855048519       25.5762349607
  H         0.1566181855        7.1008320454       24.0876001335
  H        -0.3911009999        5.6563196611       24.9781941218
