352
i =
  H        -3.1092707523       14.7583924117       15.8003193520
  C        -3.0863122315       13.7153905447       16.0821322689
  H        -4.1458967921       13.5494282028       16.3611055767
  C        -2.1391156487       13.3394286617       17.2019496373
  C        -2.8037631550       12.9137740000       14.7103413164
  C        -2.2093918085       14.1878736016       18.4639814837
  H        -2.2023624383       12.2693562736       17.5127211916
  H        -1.1727139752       13.3896790330       16.7396924773
  H        -3.3757113397       13.3120751705       13.9105218697
  H        -1.8265344241       13.2433265652       14.3771096172
  H        -2.8178594986       11.8402347790       14.7919871643
  C        -1.5068840570       13.4561467517       19.6615190320
  H        -3.1923762280       14.6330609829       18.5955916573
  H        -1.5608086161       15.0037107628       18.3628168179
  C        -2.2338080186       13.5373250014       21.0409245476
  H        -1.3803478676       12.3714335633       19.4394354249
  H        -0.4451876699       13.7901807522       19.7310256014
  C        -1.3099088982       12.8562966279       22.1573209317
  H        -3.1634305609       13.0058486068       21.0071153899
  H        -2.3617019250       14.5955132008       21.4231802957
  C        -0.0264273140       13.7504195693       22.5686794170
  H        -1.9028424280       12.5826673760       23.0512506596
  H        -1.0475425671       11.9001758041       21.7857447738
  C         1.1294343275       13.0593130444       23.4283328657
  H         0.3021540207       14.2332371752       21.6347471136
  H        -0.2840171001       14.6318623359       23.1691090670
  C         1.3902337653       11.7108677672       22.6455348638
  C         0.6926222656       12.3475267632       24.6879953912
  C         2.4288837765       13.9622337809       23.6144009607
  C         1.2080459261       10.5986131581       23.4848279006
  C         1.9029467059       11.3657531365       21.4244748393
  C         0.8122471203       10.9978791599       24.7623006286
  C         0.2080720522       12.9701115061       25.8821043111
  H         2.7675079151       14.3135083960       22.6647379139
  H         2.1429040149       14.7315807801       24.3226443500
  C         3.5780132003       13.2896297080       24.2808009577
  S         1.4723803549        9.1154341303       22.7612048135
  C         2.0140829668       10.0070778073       21.3386313723
  H         2.0383053771       11.9906940600       20.6767971073
  C         0.3740901481       10.4279121588       25.8843445697
  H         0.1866243174       14.0188449967       25.9037174643
  C        -0.2168773561       12.2848081326       26.9767185629
  H         3.7641817405       12.3297925686       23.7900434713
  H         3.3607251691       13.1545734955       25.2881149394
  C         4.9072883597       14.0702045200       24.3091323394
  C         2.5352979221        9.2691100625       20.1503908350
  C        -0.1273189090       10.9336390872       27.0710490402
  H         0.2677165574        9.2839556669       25.7822378214
  C        -0.6536313383       12.7007692530       28.2136725116
  H         5.7815225817       13.5035603197       24.7124302751
  H         4.7018851957       14.9603148886       24.8948153771
  C         5.5615047051       14.3518603415       22.9318991286
  C         2.4098758484        7.8767378412       19.9046919133
  C         3.0320711582       10.0818994887       18.9961378879
  C        -0.7120942359       10.2018078296       28.3044300117
  C        -1.0273516416       11.5744086216       28.9752365225
  S        -0.8791730898       14.2092064901       28.9427549369
  H         6.4501687734       14.9966193697       23.0399167278
  H         4.9632292445       15.0580885050       22.2438602194
  C         6.1327578826       13.1186652098       22.2110160656
  N         1.9568714067        6.9374590190       20.8479108242
  C         2.5733874312        7.3222278314       18.6792256654
  C         3.2655312910        9.5816395742       17.7679040850
  H         3.3809220705       11.0298961419       19.2582377332
  C         0.4843314688        9.5619646197       29.0220691178
  C        -1.9538763556        9.3958597885       28.0279582876
  C        -1.6186564151       12.1010981827       30.1223102631
  C        -1.4704435824       13.4906983726       30.3195638695
  H         7.1477377391       13.0011107006       22.5145282416
  H         5.6475106251       12.2469829224       22.5553566709
  C         6.0756568326       13.1378139811       20.7197453405
  S         1.8879898234        5.4673354908       20.1662535037
  N         2.3639302515        5.9513763370       18.6560546916
  C         2.9774295087        8.1251013427       17.5523782424
  H         3.7701803994       10.0645789584       16.9992177027
  H         0.9166582509        8.8079406388       28.3859148750
  H         0.0996201129        9.0261835534       29.8816629287
  C         1.6582461907       10.3981897987       29.5603943726
  H        -1.5689365811        8.6527977508       27.2496034771
  H        -2.2403001886        8.7978179326       28.9250061205
  C        -3.2096953356       10.2421582327       27.4552635673
  H        -1.9177825654       11.3933342308       30.8977685784
  C        -1.9061645220       14.2600495279       31.4820114361
  H         5.2358480613       13.7798392223       20.2234114902
  H         5.9072551869       12.0914547331       20.4737769927
  C         7.4395054415       13.4974450154       20.0162298795
  C         3.2566172622        7.3533579925       16.3501214885
  H         2.0937359937       11.0030470203       28.7781580615
  H         1.2890965109       11.1394743324       30.3327521888
  C         2.7410995825        9.5727797934       30.2790433107
  H        -2.8429192142       10.8238375173       26.6195221446
  H        -3.5815242477       10.8980871260       28.1472360082
  C        -4.4087967625        9.4553159176       27.0269183077
  C        -1.7250141589       15.6652389645       31.6090263242
  C        -2.3486715014       13.6781056654       32.7139881807
  H         7.9821501905       14.1588378431       20.7107183944
  H         7.9429867965       12.5462807699       19.9753305226
  C         7.2911851882       14.0588116605       18.6458830733
  H         2.7697449403        6.3815182214       16.3731490389
  C         3.5407399611        7.7225509505       15.1242187479
  H         3.0195388740        8.8129980080       29.6207697079
  H         2.2370836683        9.0567012591       31.0632568096
  C         4.0427085088       10.4018567808       30.6649434729
  H        -4.0886805742        8.6421604720       26.4031837724
  H        -4.8548514265        8.9955708369       27.9156882929
  C        -5.3162235283       10.2429796354       26.1992508926
  N        -1.3391248947       16.5293846134       30.5660732921
  C        -2.0088212890       16.4037299795       32.8242648933
  C        -2.7459989393       14.3230971418       33.9070084999
  H        -2.4954846008       12.6101243959       32.7703917763
  H         7.2152840718       13.2645669657       17.9120078099
  H         6.6310090273       14.9016257932       18.4407300143
  H         8.2228880372       14.5723350232       18.3585872622
  S         3.7325925325        9.3583176305       14.5456104874
  C         3.5637911283        6.6718574844       14.0880946433
  H         4.2155502128       11.1492158649       29.8789784416
  H         3.7849674903       10.8109686102       31.6161806240
  C         5.3541309568        9.6439905183       30.7916043186
  H        -4.7541495126       10.5996207796       25.3074476097
  H        -5.5949499624       11.1381281356       26.7375083094
  C        -6.5547950809        9.3857344988       25.9157172401
  S        -1.4560419324       18.0588558635       31.1171331767
  N        -1.9184562379       17.7693469221       32.6435610305
  C        -2.4507497259       15.7775305835       34.0295058934
  H        -3.2201665176       13.6530854953       34.6682263897
  C         3.8456752372        8.6036231673       12.9209918117
  N         3.8068926586        7.2360775097       12.8680265635
  O         3.3714852069        5.4613996482       14.2838755130
  H         6.0540901870       10.4691049057       31.1254558513
  H         5.4760084678        9.2628079101       29.7479056210
  C         5.3093679753        8.5034346576       31.8040425543
  H        -6.4529411365        8.4658163002       25.3099040080
  H        -6.8924006828        8.9729785734       26.8356897474
  C        -7.5640058228       10.3191210063       25.2332228296
  C        -2.6616992839       16.5359465947       35.1802826034
  S         4.2212419285        9.4502730434       11.5148879422
  C         3.6853729027        6.4825582829       11.6817399664
  H         5.6884656939        8.7108236144       32.8128274450
  H         4.2724389828        8.0751321542       31.8649412358
  C         6.2834113862        7.4363506660       31.3644019297
  H        -7.2108102125       10.6157308622       24.2321133333
  H        -7.7619130319       11.2542523189       25.7779325162
  C        -8.9088984893        9.6927888242       25.1523447003
  H        -2.1529734628       17.4232387037       35.1108328745
  C        -3.1654145293       16.3040106200       36.3943624262
  H         4.2979136896        6.9447160507       10.9464583821
  H         3.9929868872        5.4239964863       11.7268165895
  C         2.1895525615        6.5167440331       11.2830113225
  H         6.7663357678        7.1961755795       32.2858836094
  H         7.1712432552        7.7978687581       30.8358636047
  C         5.6707572169        6.2615611778       30.6998334165
  H        -9.4370557254        9.8656520953       24.1840953706
  H        -8.7769131064        8.6027994379       25.2222766638
  C        -9.8622836042        9.9541045010       26.3556229163
  S        -3.7815135596       14.7949587108       36.9678883729
  C        -3.1158235992       17.3652317219       37.3833843265
  H         2.1595051557        6.6847524810       10.2557562415
  H         1.7866386788        5.5601479024       11.4345039922
  H         1.6461660470        7.2800068518       11.8207565010
  H         6.3758625224        5.3920682600       30.5176821899
  H         5.2071805805        6.5322801144       29.7674744902
  H         4.7594688784        5.8190333896       31.2195476038
  H        -9.7552641938       10.9956403070       26.7258615276
  H        -9.6648569726        9.4266269145       27.2467092168
  H       -10.8948285903        9.7648392543       26.1330921544
  C        -4.0858088630       15.5924177171       38.5213779180
  N        -3.7349338198       16.9026161341       38.5292733501
  O        -2.8419388805       18.4835191949       37.1102682177
  S        -4.9490527508       14.7399759979       39.9040708212
  C        -3.8785568231       17.7798423852       39.6173449303
  H        -3.9416804597       18.8256449933       39.4153971562
  H        -4.8588309154       17.5247353304       40.1430054489
  C        -2.7318533713       17.5978591321       40.5834780952
  H        -2.4769718594       18.5566211260       41.1308198502
  H        -3.0127364776       16.7999733025       41.3141630372
  H        -1.8342778267       17.3150911340       40.0582671515
  H         6.5927662276       11.1101525729        3.4526011191
  C         7.4172629651       10.4340842352        3.4412964102
  H         7.0183030547        9.4125809870        3.6404132767
  C         8.3901423040       10.6217519784        4.7193754502
  C         8.1888070773       10.5685691996        2.1189562180
  C         7.6737380409       10.7410544214        6.0109806809
  H         9.0399238863        9.7099243471        4.6830302323
  H         9.0589238161       11.4804875097        4.7173145740
  H         9.2343102845       10.5769145062        2.4072212073
  H         7.9485546496       11.4584401262        1.5200661253
  H         8.0205576305        9.5633672736        1.5806689232
  C         7.1650652814        9.3477061852        6.5471570334
  H         8.3494448903       11.1408178448        6.7221369596
  H         6.8721312390       11.5090486118        5.8707693789
  C         6.5321212201        9.4012064010        7.9908591422
  H         7.9141158489        8.5200418058        6.5515204887
  H         6.3067329140        8.9846511947        6.0358505190
  C         5.2995334408       10.2680682593        8.1174724246
  H         7.2208241742        9.8504268632        8.7712276882
  H         6.2995045113        8.4223184771        8.4255156133
  C         3.9475825813        9.7500283181        7.5022842009
  H         5.1637119570       10.5511240838        9.1435767064
  H         5.5559013118       11.2168792267        7.6212449734
  C         2.7264106058       10.7486578580        7.3941725408
  H         3.6488033464        8.9063634273        8.1250480120
  H         4.0671326205        9.3352692651        6.5465276573
  C         3.1037362080       11.9950430231        6.7487695236
  C         2.3755383645       11.4396200965        8.6503970596
  C         1.5528672159       10.2023191066        6.4987313491
  C         2.8958005119       13.1608074603        7.5475047894
  C         3.7186463770       12.3063058668        5.4759791537
  C         2.5030142807       12.7595798342        8.7743963397
  C         1.8548571346       10.8809988865        9.8189706135
  H         2.0962689378        9.9400276238        5.5407709287
  H         1.1291264839        9.3623019625        7.0424165698
  C         0.3483088146       11.1781239936        6.2834253728
  S         3.2882136238       14.6362490431        6.7233209210
  C         3.9179621951       13.6591783312        5.3300201615
  H         3.9789576751       11.4891907201        4.9009108479
  C         2.0197761849       13.4054580333        9.8951505096
  H         1.7628424603        9.7512313531        9.8201440873
  C         1.6370823447       11.4510947147       11.0160874172
  H         0.6219204223       12.1727610218        5.9860511504
  H        -0.0538512423       11.2005721852        7.2736109860
  C        -0.7176800494       10.6563197925        5.3345829492
  C         4.3367141891       14.3232618160        4.0391942070
  C         1.6069956383       12.8050821980       11.1013655901
  H         2.0305835598       14.4416653011        9.8938179739
  C         1.1500577751       11.0322073135       12.2872815465
  H        -1.4593002369       11.4777365396        4.9308514432
  H        -1.3618387138        9.9071506682        5.7940445838
  C        -0.0326180714       10.2995063935        4.0289201031
  C         4.2900164518       15.7513519248        3.7019432582
  C         4.7504963492       13.4011794572        2.9091745350
  C         1.1037292901       13.4850243234       12.3160555978
  C         0.8877040256       12.1353385954       13.1141229389
  S         0.7263007520        9.5144060479       12.9544412156
  H         0.5348169071        9.3934306489        4.1314686346
  H         0.7510619314       11.0662403907        3.7791146741
  C        -1.0065401875       10.1909484750        2.8782105525
  N         3.7206856029       16.6795548487        4.5856647326
  C         4.5531468648       16.2062459675        2.4347903994
  C         5.0881980029       13.9324922190        1.6551046771
  H         4.8462990785       12.2738553424        3.0717346812
  C        -0.1808620836       14.3786221825       12.1265892812
  C         2.2276592633       14.2089675113       13.0151293520
  C         0.6365368020       11.6791597191       14.4756262596
  C         0.5039359236       10.3212934814       14.5030540394
  H        -2.0187399350        9.7639819300        3.1504588043
  H        -1.2423236026       11.2058237962        2.7492677609
  C        -0.4001670261        9.8166737151        1.5355927636
  S         3.7475230840       18.0507679557        3.8270563422
  N         4.2969658297       17.5585724676        2.3513027825
  C         4.9793116630       15.4080221185        1.3488651844
  H         5.3372867474       13.2987180698        0.8708433870
  H         0.0602629286       15.3313899154       11.7586090108
  H        -0.6598382799       14.6254469766       13.1332463564
  C        -1.1476047164       13.6046045364       11.2238737228
  H         2.6425765915       15.0042302666       12.4085326249
  H         1.8921388548       14.7002620491       13.9221254744
  C         3.4442892203       13.3461253250       13.3636777571
  H         0.5733751556       12.4345634682       15.2146493439
  C         0.2529684261        9.5437518315       15.7373955931
  H         0.4508765420        9.1702702579        1.6847112870
  H        -0.1101954996       10.6620415025        0.9742603195
  C        -1.3818894044        9.1047651744        0.6864282613
  C         5.2412664749       15.9858794207        0.0688977287
  H        -0.7052223730       13.5350822006       10.2364711886
  H        -1.3782675164       12.6121150128       11.4974252432
  C        -2.3932756818       14.3228362945       10.7992103683
  H         3.8683070733       12.8340212086       12.5602166169
  H         3.0906281213       12.7816861675       14.1997191814
  C         4.6141367902       14.1895476084       13.8748551214
  C        -0.0232138523        8.1099901110       15.8032551731
  C        -0.0850477488       10.2853858628       16.9780529823
  H        -1.7701676713        8.2266646213        1.2039033971
  H        -2.2673170024        9.7186818500        0.6807365641
  C        -0.9408533828        8.8981683698       -0.7388631703
  H         5.2220587925       17.0214790930        0.1523724786
  C         5.5357362359       15.5501631142       -1.2046907597
  H        -2.1059242646       15.3915580075       10.5247501027
  H        -3.0098651623       14.4050122377       11.7428746531
  C        -3.3798184772       13.5604564007        9.8210104881
  H         5.0787375772       14.6089550643       12.8915582809
  H         4.2723146338       14.9311290925       14.5915460871
  C         5.5817371666       13.2111142890       14.5621852552
  N         0.1129317859        7.1737339845       14.7333937379
  C        -0.3873160128        7.5547155205       16.9979288535
  C        -0.4267090760        9.6455831177       18.1134737681
  H        -0.1061654170       11.3574190033       17.0107820948
  H        -1.4224727525        8.1135596142       -1.2446976602
  H         0.1335397383        8.7445210205       -0.8465172462
  H        -1.1891162333        9.7598222332       -1.3243085900
  S         5.8771066427       13.9843744073       -1.7395381047
  C         5.4941158101       16.6258578252       -2.2622089510
  H        -3.0887316322       13.6846104680        8.7891405405
  H        -3.3723420380       12.5666169204       10.2258331801
  C        -4.8326431040       14.0149416538        9.8375492297
  H         5.5405646367       12.2557851862       14.1133899788
  H         5.2723112725       13.1279425869       15.6090155830
  C         6.9765952865       13.6769391290       14.5449022068
  S        -0.1171086558        5.6959919294       15.3176041612
  N        -0.6288429400        6.1615641942       16.8260325053
  C        -0.5523895981        8.2399598698       18.1662372123
  H        -0.5655423966       10.1946521037       19.0713275635
  C         6.1792658546       14.7727700212       -3.3097819696
  N         5.9384994873       16.0660608628       -3.4255422071
  O         5.2505576827       17.8264593861       -2.0876939110
  H        -4.9902768158       14.2827180074       10.9190697313
  H        -4.9495158954       14.9703091290        9.3613172136
  C        -5.7988536180       12.9748397381        9.2250733337
  H         7.5686736749       12.8042149926       14.8936100924
  H         7.3513564863       13.7098149705       13.4996735796
  C         7.2242492306       14.9194894973       15.3643592117
  C        -1.0359514889        7.5080978852       19.2577928354
  S         6.4741273859       13.8492726084       -4.7737908104
  C         5.7582030764       16.7165428774       -4.6900485610
  H        -5.3409374749       12.5127446171        8.3381805075
  H        -5.9235225049       12.0873702418        9.8769767596
  C        -7.1717659993       13.6262798533        8.8612244593
  H         8.2691349851       14.9065499219       15.8237318705
  H         6.5253400725       14.9291811664       16.2005330546
  C         7.1760916994       16.2628520783       14.6304054615
  H        -0.8650627255        6.4383997785       19.1836070933
  C        -1.5757076117        7.8034894251       20.4793284441
  H         6.3202247831       16.3176145667       -5.5799810639
  H         6.1825348774       17.7854610816       -4.4359404040
  C         4.2927559621       16.9931225354       -5.0052791488
  H        -7.8168660551       13.0436198725        8.1154713569
  H        -7.0778709253       14.6057398482        8.4516000646
  C        -8.1249759229       13.8331030969       10.0932225503
  H         7.3933362993       16.0824163171       13.6100138973
  H         6.2108644130       16.7420838207       14.6417419573
  C         8.0141687494       17.4000351518       15.1633276251
  S        -1.8227229016        9.3371474398       21.1921277855
  C        -1.7412536495        6.6322695789       21.4428521072
  H         4.2265707003       17.8881624364       -5.6426771078
  H         3.6921504734       17.2604849535       -4.1570060307
  H         3.9132501512       16.0305671147       -5.5162013105
  H        -8.2064755464       12.9196427501       10.6426489514
  H        -7.6365473488       14.5611858738       10.6815498656
  H        -9.1756584156       14.2671226962       10.0186089505
  H         8.6484478015       17.7088756126       14.3703270809
  H         7.4237009241       18.2178532634       15.4110433329
  H         8.5814328058       17.2321201555       16.0704793070
  C        -2.2391665703        8.4778129474       22.6830388316
  N        -2.1418158222        7.1257278895       22.6067488849
  O        -1.4906319309        5.4627978061       21.2262477444
  S        -2.1827764953        8.9976353215       24.3488180651
  C        -2.4230837491        6.1971865887       23.6477679402
  H        -3.0199053241        5.4246941898       23.2947801050
  H        -3.1104861790        6.5765385550       24.4126255511
  C        -1.1619838894        5.9529482816       24.4761286967
  H        -0.3587230570        6.2394835798       23.8287945016
  H        -1.0862266766        4.9398684922       24.8764024740
  H        -1.1665462337        6.6218461107       25.3706881495
