352
i =
  H        -2.4459797973       15.4648500840       15.9532604128
  C        -2.5597394975       14.3687669164       15.9901128231
  H        -3.6005699567       14.2764488119       16.2551616595
  C        -1.9709536799       13.6260343000       17.1956495442
  C        -2.1901572923       13.6904405469       14.6579406262
  C        -2.2632489002       14.1443539423       18.6209207389
  H        -2.3300434486       12.6271904366       17.0771564726
  H        -0.8818269218       13.6082208107       17.0603532872
  H        -3.0552459079       13.9329440116       13.9883284278
  H        -1.3310685845       14.0766462682       14.1916183078
  H        -2.0250791185       12.6446199555       14.7934233329
  C        -1.4899127231       13.4490426734       19.7035306562
  H        -3.3290916976       14.2006984941       18.9117307784
  H        -1.9095970147       15.1295479951       18.6632691371
  C        -2.1535190112       13.3690146577       21.0892548582
  H        -1.5218716654       12.3247439320       19.4538594285
  H        -0.4014020820       13.7860579291       19.7327225495
  C        -1.3388872953       12.7356457724       22.2076325456
  H        -3.1074571538       12.8134018738       21.0397914491
  H        -2.5153231198       14.2706310433       21.4833117804
  C        -0.0923926771       13.6163230760       22.5406144998
  H        -1.7531604565       12.7193900949       23.2371472737
  H        -0.9533904263       11.7174114833       22.0545528972
  C         1.1015634515       12.9625428269       23.3055095352
  H         0.4385041735       13.9011872427       21.6154251739
  H        -0.2273291998       14.5680595560       23.0990366920
  C         1.5114344353       11.6318426320       22.6258195387
  C         0.6603371157       12.3002901608       24.5744100953
  C         2.4131286467       13.8286295023       23.3967702296
  C         1.1425485110       10.5354120794       23.3757580279
  C         1.8412153706       11.2853871617       21.2987676844
  C         0.6424597085       10.9492168994       24.6239558963
  C         0.2987550844       12.9671822771       25.7815784197
  H         2.4451174739       14.3916349705       22.4756754178
  H         2.1470010004       14.6042083178       24.1040842600
  C         3.6892175234       13.1039507015       23.8483922076
  S         1.4671746331        9.0543761522       22.6451999842
  C         2.0785247676        9.9039161145       21.2240023464
  H         2.1396937266       12.0685271326       20.5648384034
  C         0.1385117940       10.3736972444       25.8029661057
  H         0.5968601008       13.9903748675       25.9160469110
  C        -0.1976530329       12.3551045642       26.9168953944
  H         3.8384966009       12.0799319495       23.4140082605
  H         3.4532686406       12.9533167012       24.9068470795
  C         5.0342970612       13.8205994445       23.6880364152
  C         2.5989213233        9.2119100749       19.9159406617
  C        -0.3067410179       11.0257137371       26.9421462689
  H         0.0854808453        9.2467507564       25.7981139554
  C        -0.6173127434       12.8041534790       28.1629393730
  H         5.8188418417       13.1943137435       24.1217863371
  H         5.1271751762       14.7079585495       24.2555874153
  C         5.4231354112       13.8573397207       22.1573156214
  C         2.4891363763        7.8512421148       19.5781271817
  C         3.1897577246       10.0372138171       18.8001326292
  C        -0.8338014953       10.3415134169       28.1554385983
  C        -0.9724997755       11.7352902577       28.9159541610
  S        -0.8093293423       14.3087663655       28.8492862802
  H         6.3606589937       14.3379537373       22.1632407272
  H         4.7369133620       14.5339188420       21.6633175994
  C         5.5012118920       12.5589275059       21.2472417577
  N         2.0916780667        6.8980357660       20.4525502785
  C         2.7656163889        7.3456728446       18.3372215742
  C         3.4344921372        9.5227231012       17.5455022610
  H         3.4249978381       11.0180236381       19.1188009253
  C         0.2493821521        9.4540485613       28.7838371826
  C        -2.0817563015        9.4331060535       27.9216019161
  C        -1.5635150685       12.1896391189       30.1358192938
  C        -1.4765085240       13.5635124015       30.2693196908
  H         6.3490885103       12.0119298546       21.4308027771
  H         4.5738784552       11.9410227048       21.2741083021
  C         5.6426091298       13.0269433054       19.7009501191
  S         2.2857737790        5.4322025773       19.8013328584
  N         2.6458291512        5.9512192484       18.3567800145
  C         3.2157552276        8.1431704401       17.2271872166
  H         3.8164470436       10.2230687150       16.8586605585
  H         0.4686787508        8.5907856112       28.1374764474
  H        -0.0271974403        8.9676774057       29.6734062859
  C         1.5111361177       10.3079927449       29.1628527718
  H        -1.7696671192        8.7557962989       27.1237426154
  H        -2.3456636275        8.8230205772       28.7551661235
  C        -3.2734592099       10.2650885258       27.5952010678
  H        -1.9556851876       11.4932499725       30.8372335145
  C        -1.7672283151       14.3480165400       31.5196623893
  H         4.9669220763       13.8866058975       19.7067757568
  H         5.1557102134       12.3371738764       18.9696767989
  C         6.9811994240       13.3588946464       19.1108628218
  C         3.3639130888        7.4192554503       15.9688068460
  H         1.8916993761       10.7549483103       28.2778719711
  H         1.2776773907       11.1179764029       29.8193163632
  C         2.5626853483        9.3223806277       29.7581538236
  H        -3.1948561978       10.6623937596       26.5755977889
  H        -3.4388648182       11.0475478787       28.3155737552
  C        -4.4890025345        9.3920033266       27.7332995737
  C        -1.6541212424       15.7462533573       31.7250710362
  C        -1.9892001015       13.5796367210       32.8005455918
  H         7.5746835871       14.0172998389       19.7717727142
  H         7.4715787909       12.3703161959       19.0769923839
  C         6.8770815914       13.8560390912       17.6508479393
  H         3.1379904981        6.3547407828       16.0316514885
  C         3.6915994855        7.9148315464       14.7040347413
  H         2.6949712109        8.5840765623       29.0224231058
  H         2.1128903661        8.8239840174       30.6477367843
  C         3.8250819963        9.9175979674       30.3257080749
  H        -4.3164251244        8.5209921911       27.1092608544
  H        -4.7054008847        9.0744131180       28.7358694817
  C        -5.7540034651       10.1023933500       27.3193855272
  N        -1.3128569703       16.5834481084       30.6827794415
  C        -1.9408183733       16.4305461039       32.9125301567
  C        -2.3139327798       14.2663370521       33.9476208788
  H        -2.0321416777       12.5049829654       32.7414164795
  H         6.9587623140       14.9225347306       17.5565999996
  H         7.6048820314       13.3277956704       17.0211348513
  H         5.8446787720       13.5565579014       17.3169561826
  S         3.9406355387        9.5431993383       14.2735485443
  C         3.7366336015        6.9502911450       13.6185779250
  H         3.6891324601       11.0035207021       30.0971280373
  H         3.8945530558        9.8228665536       31.4292849955
  C         5.1439460781        9.3796642442       29.6673542256
  H        -5.5928109160       11.1352064259       27.5335575505
  H        -6.5823235959        9.7145609424       27.9406818257
  C        -6.1434508059       10.0386909333       25.8151149452
  S        -1.2095932505       18.0388409839       31.3057756419
  N        -1.9120615779       17.7400551773       32.7368693678
  C        -2.3417571996       15.7688815529       34.0512190542
  H        -2.4385988491       13.7294897126       34.8296528160
  C         4.2742787715        8.9342947093       12.6079568161
  N         4.1562465467        7.5980507393       12.4897898020
  O         3.3726662689        5.7135986437       13.7087030541
  H         5.9161720639       10.1721692291       29.5136627393
  H         4.9603840702        8.9111741961       28.6993226862
  C         5.9049203404        8.4043207139       30.5265682702
  H        -5.1989854007       10.3425243466       25.3107707411
  H        -6.2846955581        8.9661661249       25.5667776124
  C        -7.3420222640       10.9150470569       25.5480642859
  C        -2.5710892165       16.5313845171       35.2596726596
  S         4.5887463053        9.7998594757       11.1435831710
  C         4.1134364517        6.8617217449       11.2154950807
  H         6.8895536145        8.3562200221       30.1048413909
  H         6.0568613784        8.7681814704       31.5372628509
  C         5.2346768048        7.0169139655       30.6247571034
  H        -7.1067400834       11.7875075243       24.9018873422
  H        -7.6346904459       11.3103862520       26.5686901610
  C        -8.5042316964       10.1094032182       24.9304753007
  H        -2.0690359014       17.5000604866       35.2887712352
  C        -3.1995072779       16.2351386479       36.4284639993
  H         4.8790222140        7.2324947734       10.5323354003
  H         4.4950724907        5.8603793579       11.4812621549
  C         2.7143441694        6.7652885585       10.6152384562
  H         5.4122854837        6.4661834385       29.7104630036
  H         4.1960194715        7.1842685244       30.7446448615
  C         5.6377634704        6.1497464032       31.8638121464
  H        -8.8162699244       10.6005135198       23.9857240601
  H        -8.3338398948        9.1249168183       24.6231527756
  C        -9.7503168527       10.4428061823       25.7599655201
  S        -3.8815563382       14.6931549314       37.0417596677
  C        -3.2066095951       17.3000347115       37.4903749393
  H         2.3981342490        7.6257517391       10.0477171894
  H         2.7012646640        5.7424906291       10.1281866001
  H         1.9685832939        6.6140589303       11.3693792678
  H         5.8621608580        6.6624188615       32.7188250559
  H         6.5910010251        5.6731237963       31.6269535626
  H         4.8706674077        5.4092063500       32.1817962658
  H       -10.0150605702       11.4637093993       25.6864884749
  H        -9.5059610030       10.1999428448       26.8124010600
  H       -10.4640635069        9.7209502648       25.3536206278
  C        -4.2806246606       15.5538434707       38.5048807114
  N        -3.8557939769       16.8725884636       38.5225503347
  O        -2.7071750076       18.4327840336       37.2512497086
  S        -4.9151853801       14.8413608696       39.9707264893
  C        -3.9130421002       17.6821720045       39.7542160888
  H        -3.7367818986       18.7451951932       39.4473331905
  H        -4.8421283446       17.5996247949       40.2040666840
  C        -2.8107098117       17.4831314649       40.7111637654
  H        -1.9500340752       17.0261778312       40.2891785088
  H        -2.5496328718       18.4198808788       41.0312103664
  H        -3.2049638605       16.8716053861       41.5186817016
  H         6.9099443345       11.3686058223        2.5172241473
  C         7.6996618599       10.6313215928        2.6053029887
  H         7.1997460524        9.7353620776        2.8057371153
  C         8.6033533452       10.9324588430        3.7979872806
  C         8.4657627191       10.5373078600        1.3053133144
  C         7.7485434108       11.0745989290        5.0727994572
  H         9.3213235954       10.0799150140        3.9112190537
  H         9.1649843544       11.8843228798        3.7874642062
  H         8.9712248641       11.4524869267        1.0842074931
  H         7.8211953667       10.1988562077        0.5115512262
  H         9.1420267889        9.6999248140        1.3122596168
  C         7.1631199550        9.7562678975        5.5630406534
  H         8.3489502830       11.4917580530        5.8251550446
  H         6.9865656609       11.8388420001        4.8187848981
  C         6.7803669490        9.7554093631        7.0208737580
  H         7.8088441863        8.8224276814        5.4815841891
  H         6.3117546190        9.4140986336        4.9867118946
  C         5.5337616964       10.5607112606        7.2830558734
  H         7.5398685473       10.2613099094        7.6073152932
  H         6.6088941095        8.7061502528        7.3176993050
  C         4.1834275454        9.9191129165        6.7958685564
  H         5.5810789841       10.7066812039        8.3483600471
  H         5.6287376646       11.5222591837        6.8995654306
  C         2.9066513915       10.8671581218        6.6982723384
  H         3.9376558105        9.0505351033        7.3934236886
  H         4.4129885643        9.5400259243        5.8308157625
  C         3.2547237214       12.2222766865        6.0936055491
  C         2.5682271015       11.4471461892        8.0596163350
  C         1.7399283035       10.0683400383        6.0048839950
  C         3.0615340655       13.3116374502        6.9172592402
  C         3.7687875640       12.6264839353        4.8336520379
  C         2.6823147783       12.7887981225        8.2044942245
  C         2.1117726699       10.7836509868        9.1973393614
  H         1.9760211759        9.5652084552        5.0147439173
  H         1.3962477612        9.2582932775        6.6554899704
  C         0.5096003598       10.8889339538        5.8035482345
  S         3.3082893249       14.8345075729        6.1669974100
  C         3.9236773857       13.9781740084        4.7317714250
  H         3.9381568733       11.9020282937        4.0144485043
  C         2.1946814197       13.4090192066        9.3012522648
  H         2.1045464911        9.7055937624        9.1199655261
  C         1.7559129685       11.4334042370       10.3792305358
  H         0.7066706680       11.8917824057        5.6308820042
  H        -0.2183062175       10.7879350790        6.6350597069
  C        -0.2779202982       10.3895606959        4.6075773180
  C         4.2991295845       14.7363380278        3.4656353726
  C         1.7854169933       12.7857947913       10.4762232894
  H         2.2919305666       14.5037744381        9.3497362829
  C         1.3625720287       11.0489981872       11.6344350616
  H        -1.2654444155       10.8447075159        4.4700355645
  H        -0.5445675749        9.3476329116        4.8340176705
  C         0.4336998069       10.6204013982        3.2597824285
  C         4.2950495398       16.1522850102        3.2594736326
  C         4.6849393053       14.0287300486        2.2650544511
  C         1.3173269639       13.4660364278       11.7490648495
  C         1.1091358830       12.1418433316       12.4289720689
  S         1.1468248631        9.4808098303       12.3808649973
  H         1.2630857098        9.9361819392        3.1356232738
  H         0.8440424496       11.6630227481        3.2727038577
  C        -0.4872487154       10.5057903939        2.0392928684
  N         4.0772813129       17.0835737697        4.2338692357
  C         4.5895226984       16.7963634520        2.0584725838
  C         4.9167300494       14.5876437076        1.0389553031
  H         4.7483947878       12.9528948225        2.2644992307
  C         0.0462613473       14.2482891068       11.3990064513
  C         2.3132038704       14.2926384705       12.5296985530
  C         0.6795043316       11.7640714022       13.6999434199
  C         0.6280121038       10.4157877818       13.8724029403
  H        -1.0448206277        9.6810695837        2.2903140729
  H        -1.1344885008       11.3730193020        2.0916664700
  C         0.3942984034       10.3311017145        0.7777232992
  S         4.0728098552       18.5656687587        3.6573557853
  N         4.6305762352       18.1896080786        2.1439475579
  C         4.8865169144       16.0718712334        0.8967513973
  H         5.1874819552       13.9710283720        0.2135066226
  H         0.2190544397       14.9372189526       10.5517522136
  H        -0.3050266534       14.9141602674       12.2474435430
  C        -1.1877902274       13.4375259520       11.0872787584
  H         2.5092127579       15.2058367871       11.9757799923
  H         1.8814962314       14.6505363239       13.4667502341
  C         3.7677645848       13.7104965461       12.8286859565
  H         0.6367741082       12.5675495189       14.4454739489
  C         0.3528390310        9.6354562566       15.1243612932
  H         0.4429647130        9.3143453985        0.5050541127
  H         1.4174440401       10.6136510181        1.0098778875
  C        -0.1692054775       11.0023295506       -0.4679513470
  C         5.2165738015       16.7725483602       -0.3012562698
  H        -0.9506538763       12.7294296311       10.3249060778
  H        -1.4491667961       13.0128487276       12.0567577462
  C        -2.3401054303       14.3150997299       10.5961254423
  H         4.3765967940       13.5455757320       11.9731532334
  H         3.7704139117       12.7433643932       13.2507636812
  C         4.4590909050       14.6081374501       13.8231163899
  C         0.2700106096        8.2361503033       15.2364171130
  C         0.0736623212       10.4006805318       16.3578804870
  H        -0.0805086899       12.0434222641       -0.3625930674
  H         0.5480262178       10.8939613373       -1.3432273130
  C        -1.5998564714       10.7143836432       -0.8800093562
  H         5.1234643000       17.8333107497       -0.2360336918
  C         5.4033022361       16.3704287089       -1.5841278675
  H        -2.1630126102       14.9208834297        9.6563397393
  H        -2.9171491787       14.8554573010       11.3757171742
  C        -3.3876322656       13.4198274199       10.0280396808
  H         4.3350722887       15.6791250209       13.6685924652
  H         4.1044684785       14.3432537177       14.8221763868
  C         5.9833464174       14.3884769184       13.5990693493
  N         0.4983165938        7.3319909268       14.2143738503
  C        -0.1225320161        7.6281842167       16.4222758433
  C        -0.3005652215        9.7636091884       17.5501114508
  H         0.0605642862       11.4251056307       16.3874451741
  H        -2.0985443526       11.6318964507       -1.1206729257
  H        -2.2164324781       10.5269872243       -0.0019961439
  H        -1.7211564350        9.9450704436       -1.6563710169
  S         5.5289274187       14.7539538274       -2.2046965045
  C         5.6074008398       17.4705573132       -2.6232830499
  H        -2.8520811688       12.6482721855        9.3582045997
  H        -3.7278613665       12.6641637138       10.7516298817
  C        -4.4932338730       14.1165187113        9.2820490617
  H         6.1856853009       14.5815416423       12.5695103360
  H         6.3607421280       13.3724427392       13.8549525359
  C         6.7327217337       15.3037089950       14.5338386712
  S         0.1852788755        5.8245754670       14.7733484089
  N        -0.1998124090        6.2556782026       16.3398391551
  C        -0.4426796567        8.3179964809       17.6213781030
  H        -0.3506875072       10.2995415124       18.4277870229
  C         5.9381919928       15.5155064451       -3.7026192354
  N         5.8466162277       16.8449201647       -3.7596710728
  O         5.6594509436       18.6725548978       -2.3427432862
  H        -4.9150562194       14.9090750686        9.8972429427
  H        -4.0870613098       14.6792582651        8.4426641583
  C        -5.5651291852       13.1855725775        8.6742522640
  H         6.2352284473       15.5659102416       15.4365028308
  H         7.5658469701       14.8386741997       14.8760362292
  C         7.1097419807       16.5871610397       13.7593011680
  C        -0.7739959758        7.5966489011       18.8019453228
  S         6.3141480413       14.6308930057       -5.2341265563
  C         5.8839209240       17.6646183880       -4.9324894201
  H        -5.2952893042       12.8209189703        7.7081235244
  H        -5.7183489030       12.3284830596        9.3557776662
  C        -6.8471502980       13.9994632535        8.5069403163
  H         6.4617191669       16.5916974682       12.7981054785
  H         8.1355881504       16.5727160301       13.4166580646
  C         6.9877739612       17.8311986935       14.5595430519
  H        -0.4778804734        6.5783142121       18.8329129301
  C        -1.2660231776        7.9420883549       20.0609539446
  H         6.7465551036       17.2791213728       -5.5639781419
  H         6.0390361590       18.7042987329       -4.7928119918
  C         4.4818085119       17.5659758178       -5.5300820360
  H        -7.4691058261       13.6693133073        7.7560290311
  H        -6.6038910439       15.0163605039        8.4840013582
  C        -7.7173828286       13.9816177702        9.7369876747
  H         6.5086138230       18.3694865831       13.7799879062
  H         6.1396832740       17.8134950926       15.2357066241
  C         8.2939084293       18.4904107619       14.9808787887
  S        -1.8052678622        9.4932469207       20.5820606308
  C        -1.3193916345        6.9113220022       21.1209969950
  H         3.7778990373       18.0500385754       -4.8471244410
  H         4.1338131349       16.5096563314       -5.7575412648
  H         4.4281300871       18.1642962965       -6.4365203177
  H        -7.2223876018       14.5958100224       10.5172354673
  H        -8.6454321953       14.5919213156        9.4745695240
  H        -7.8834418018       13.0230831364       10.1569862462
  H         8.8670176686       17.7785817038       15.6352965415
  H         8.9852712770       18.7908598075       14.1853895964
  H         8.0737113226       19.3961280696       15.5781622032
  C        -2.2183024478        8.6710059164       22.0702979870
  N        -1.9137022596        7.3496457965       22.2004286796
  O        -0.9911114257        5.7456429817       20.8580091274
  S        -3.0552292626        9.4607224016       23.4806424834
  C        -2.0472060880        6.4743137133       23.4053907146
  H        -1.9337968073        5.4409246723       23.1477425292
  H        -2.9793491325        6.5471984743       23.8642761809
  C        -0.9080115980        6.8079701295       24.3227160269
  H        -0.8121877678        7.8519189131       24.5917638386
  H         0.0728162612        6.5179703027       23.8858064035
  H        -0.9975214173        6.2977574760       25.2805675811
