352
i =
  H        -2.9952719219       14.8738142355       16.3780118530
  C        -2.8205842044       13.8468788634       16.5594130782
  H        -3.7148190402       13.4291544871       17.0146261189
  C        -1.6714667209       13.5338104545       17.5382670824
  C        -2.7196359356       13.1846836084       15.2918816922
  C        -1.9673940801       14.0831105246       18.9578834616
  H        -1.7331874109       12.4634127002       17.7131895716
  H        -0.6484448136       13.6377520109       17.2347353437
  H        -2.2519673330       12.1977619068       15.2872845330
  H        -3.6853955581       13.1597053063       14.8545077319
  H        -2.1724621629       13.7440277636       14.5400097495
  C        -2.5722639623       12.9039658164       19.7708228421
  H        -2.5637304983       14.9389000701       19.0590012821
  H        -0.9723744648       14.3760898889       19.4129056056
  C        -2.5600740465       13.1658385943       21.2378247526
  H        -3.5717689866       12.6756992961       19.4858409915
  H        -1.9339931942       11.9787205771       19.6434092166
  C        -1.3768678205       12.6115078847       22.0208592722
  H        -3.4581383221       12.6336979454       21.5478810146
  H        -2.7995301992       14.2141535496       21.4327256071
  C        -0.2670725642       13.6533043205       22.3524179897
  H        -1.7144107265       11.9927672092       22.8755464920
  H        -0.9395941314       11.8130558158       21.4345541828
  C         0.8848963640       12.9554461417       23.1029697478
  H         0.1894678176       14.1387733956       21.4738967063
  H        -0.6949524447       14.4943688083       22.9074819586
  C         1.2766120735       11.5891428910       22.5340111417
  C         0.3766625929       12.2744569522       24.4195036984
  C         2.0559164819       13.9044883219       23.4943404147
  C         0.9637199254       10.5432734199       23.2354801805
  C         1.9109704302       11.2310085981       21.3005986515
  C         0.4103252522       10.9242116420       24.4524557552
  C        -0.0772939844       12.8389023471       25.6504482567
  H         2.3981004019       14.3597398197       22.5752416304
  H         1.6499974767       14.6385875196       24.1631598117
  C         3.2419931572       13.2308746254       24.1911348814
  S         1.4290992301        9.0821364350       22.6381397517
  C         2.0113184412        9.8989730124       21.2345014951
  H         2.0688924637       11.9740428395       20.5553868948
  C         0.0420533344       10.2864001536       25.5651008759
  H        -0.1093358382       13.8913654781       25.7218051246
  C        -0.4429637010       12.1663913724       26.7698448383
  H         3.6555014833       12.4501527827       23.4984623676
  H         2.9840464380       12.6953450391       25.0456881387
  C         4.2740363643       14.3124468323       24.5108666555
  C         2.5443805411        9.1745311283       20.0803558195
  C        -0.3931993643       10.7874776963       26.8045135317
  H         0.1839194994        9.2229766147       25.5986824624
  C        -0.8641863909       12.5065995843       28.0584400312
  H         4.8908674293       13.8568129913       25.2116343384
  H         3.8936277961       15.1989521258       25.0143121649
  C         5.1270302248       14.8743934490       23.3875289039
  C         2.4418016104        7.8023417061       19.7247683261
  C         3.1702323746       10.0120009885       19.0215397410
  C        -0.7664119211       10.0786295628       28.0096315130
  C        -0.9576453546       11.3458087791       28.8333691528
  S        -1.1075317656       13.9900202374       28.9403517140
  H         5.7847870854       15.6255083578       23.8716584461
  H         4.5048383676       15.4039286147       22.6793590195
  C         5.9191515239       13.8927110354       22.5627186696
  N         1.9785198800        6.7309085251       20.5430041585
  C         2.7929316334        7.3583213052       18.4597169904
  C         3.5013884007        9.5899336662       17.7427343512
  H         3.3397131232       11.0772742688       19.2688953420
  C         0.3077225726        9.1607787361       28.6048057920
  C        -2.1450836088        9.3974248437       27.9309759589
  C        -1.3359247273       11.7161210343       30.1932610989
  C        -1.3708634502       13.1237061829       30.3431583535
  H         6.9046770250       14.3094483520       22.5621617486
  H         5.8747648049       12.9089679524       23.0032094558
  C         5.4155942890       13.8832877248       21.1190895363
  S         1.9645021087        5.3889496420       19.6338500039
  N         2.4524412708        5.9984369140       18.2022910733
  C         3.2312319326        8.2146418165       17.3733755528
  H         3.9083191818       10.2146681086       16.9813550845
  H         0.6150890063        8.4677463825       27.8163035512
  H        -0.1631072113        8.5378029543       29.3609818893
  C         1.6216194253        9.8060593397       28.9640451757
  H        -2.1080479115        8.5532219017       27.2256974764
  H        -2.3474049309        9.0363690966       28.8973547537
  C        -3.2108610003       10.3497257384       27.3614844189
  H        -1.4917781946       10.9403304047       30.9295147333
  C        -1.6776839701       13.8625023574       31.6013270886
  H         5.5004028084       14.9218209312       20.7505749198
  H         4.3811338026       13.5993829600       21.0506130908
  C         6.2069084181       13.1078371415       20.2234290265
  C         3.4908167648        7.6267352593       16.1205442726
  H         2.1107313390       10.3204676070       28.1818510610
  H         1.4342362190       10.6168837084       29.6797933379
  C         2.5810689280        8.8033538768       29.6166426340
  H        -2.9105048036       10.7932082778       26.3926180014
  H        -3.5203674610       11.0728971043       28.1284198491
  C        -4.4548088872        9.5068495773       27.1098965241
  C        -1.7733463795       15.2668558019       31.8005370525
  C        -1.9050466582       13.0811700044       32.8694427198
  H         6.7139309081       12.3373002664       20.7921877202
  H         5.6702676035       12.5708531313       19.4591751043
  C         7.2425154869       13.9769664166       19.4789659501
  H         3.3950477494        6.5894174100       16.0377781359
  C         3.8378601276        8.1418197601       14.9270782339
  H         2.6723300269        7.8741940543       29.0455454672
  H         2.1740210547        8.5416810997       30.5698119618
  C         3.9380382731        9.3866458773       30.0221650775
  H        -4.2000751764        8.6857409854       26.4788261639
  H        -4.7978513125        8.9977136511       27.9831114582
  C        -5.6005653399       10.3618516383       26.5920686137
  N        -1.7260665902       16.2361406202       30.8090406401
  C        -2.2399446977       15.8942205584       32.9589255429
  C        -2.2188284482       13.7131572879       34.0964386953
  H        -1.8181989593       12.0073000690       32.9667810449
  H         6.8511175182       14.7521820670       18.8563496205
  H         7.8185718861       14.4868252037       20.2681497863
  H         8.0550226025       13.3960774610       19.0430130117
  S         4.0040851176        9.7867504617       14.4662492068
  C         3.9951684640        7.1352326907       13.8016173198
  H         4.6009919159        9.1342891749       29.1656284518
  H         3.9002559634       10.5325297135       30.2527364888
  C         4.5278998659        8.6566218185       31.2673276137
  H        -5.3187663910       10.8287816865       25.6461427906
  H        -6.0532281591       11.0520080304       27.3330842479
  C        -6.7539187639        9.6135340604       26.0591876728
  S        -1.7292964190       17.7199786613       31.4813322165
  N        -2.2525212804       17.2851898184       32.9443791389
  C        -2.3634927100       15.1841031213       34.1651670753
  H        -2.1917270297       13.1594976566       34.9947803596
  C         4.3102411196        9.2413692806       12.8559946460
  N         4.3623147535        7.8846779104       12.7681763945
  O         3.9173955227        5.9122701254       13.8016144749
  H         3.8961963596        9.0152707351       32.0793498076
  H         5.5275892638        9.1063612013       31.3090518276
  C         4.5792119719        7.0861331464       31.3031653227
  H        -6.3756442258        8.6892659389       25.6088601327
  H        -7.4795431542        9.3725500010       26.8683353422
  C        -7.6933145727       10.5238406742       25.1999835384
  C        -2.6138015983       15.9125507202       35.3728376307
  S         5.0812117387       10.3064139626       11.6808387002
  C         4.6064916605        7.1439010044       11.4679428824
  H         3.8273480300        6.7036052481       31.9992495843
  H         4.2998812103        6.6944255065       30.2553226155
  C         5.9368051528        6.5052561566       31.7025151240
  H        -7.1094780913       10.6323520815       24.3921080909
  H        -7.6456630820       11.5208345370       25.6641456330
  C        -9.0369390233        9.8282463434       24.9672501344
  H        -2.2447170946       16.9315754021       35.3029288168
  C        -3.0746668887       15.5648278422       36.5728749308
  H         5.2609721600        7.7439314774       10.8095455549
  H         5.0696277884        6.1544734701       11.6155077473
  C         3.3337908179        6.9248354198       10.6564013609
  H         5.8342576796        5.5298368603       32.2099544647
  H         6.4983972988        7.2279178464       32.3727109290
  C         6.8397601291        6.4610791607       30.4090178599
  H        -9.6411943915       10.3103080630       24.2659980329
  H        -8.9164191242        8.8053392560       24.5867122935
  C       -10.0098804061       10.0327602761       26.1247388952
  S        -3.8376373220       14.1193804506       37.0117938758
  C        -3.1096643671       16.6471615248       37.5448893903
  H         2.4392440249        7.3936597299       11.1001421120
  H         3.5177487853        7.4137901595        9.7148041854
  H         3.0537853107        5.9136644376       10.5723383276
  H         7.8455704823        6.1394154550       30.6287100021
  H         6.9598269068        7.3523997008       29.8956904071
  H         6.3915978196        5.7053820856       29.7186616142
  H       -10.9424024814       10.4954671048       25.7741395743
  H        -9.5845415384       10.5903528555       27.0274715911
  H       -10.0646840814        9.0471644553       26.4682025103
  C        -4.1409773908       14.8821159598       38.5883412147
  N        -3.8593170876       16.2083255991       38.6029490490
  O        -2.7372403741       17.8419030501       37.3644268156
  S        -5.1181935961       14.1921850840       39.8358314891
  C        -4.0453446879       17.0755552680       39.7302968584
  H        -4.1583033725       18.0616916357       39.2282706651
  H        -4.9523844922       16.8512907600       40.1672330898
  C        -2.8705985585       17.0589392015       40.7758302826
  H        -2.0231166530       16.5444122645       40.3303488940
  H        -2.5536148445       18.0732719271       40.9762444406
  H        -3.0823782176       16.4262525884       41.6080229690
  H         7.9217955748       11.4016888021        3.3677274584
  C         8.3015425898       10.4627590864        3.5523003299
  H         7.4556958587        9.8075710171        3.5688635324
  C         9.0737885182       10.5116410165        4.8885661499
  C         9.2104115345       10.0082479310        2.4245706142
  C         8.0909329181       10.8247240231        5.9973355180
  H         9.4575046448        9.5207514713        5.0809986752
  H         9.8414570167       11.3837376463        4.7987665362
  H         8.6020180082        9.6180583233        1.6411126545
  H        10.0019721016        9.2656611104        2.6933697629
  H         9.7370352640       10.8833153454        1.8841222417
  C         7.2707906292        9.6149251394        6.4187027856
  H         8.6085605437       11.1583375012        6.8865038431
  H         7.3712437904       11.6017697746        5.6720481277
  C         6.6222480727        9.8153557609        7.8031496436
  H         7.9387530004        8.7686002465        6.4236514376
  H         6.4243445022        9.4528651530        5.6963172775
  C         5.3672350863       10.6269299528        7.8062896056
  H         7.3935192978       10.0445851798        8.4872713973
  H         6.3506947376        8.7799174530        8.1932484385
  C         4.1471906033        9.8694078195        7.3082356143
  H         5.1523878403       11.0047514783        8.7929079634
  H         5.6981019837       11.5170832607        7.2187465771
  C         2.7777000899       10.5796248087        7.2522212856
  H         4.0119570628        9.0333271207        7.9547206937
  H         4.2655992040        9.4228431692        6.3102376645
  C         3.0299183780       11.8272145691        6.5021528447
  C         2.2921756240       11.2868471579        8.5097421943
  C         1.5317545520        9.8681267623        6.6256993086
  C         2.7165303866       12.9653780168        7.2510227656
  C         3.6326317520       12.2316452327        5.2986055926
  C         2.2281132352       12.6342313071        8.4732728061
  C         1.8878523486       10.7624809023        9.7026168955
  H         1.7360149765        9.3546407293        5.7110238228
  H         1.0918756608        9.1435850134        7.2714698123
  C         0.4315999276       10.8756998407        6.1865000049
  S         3.1111823460       14.4699834312        6.5342343597
  C         3.6459901593       13.5826287321        5.1184287461
  H         3.9614773416       11.3889396480        4.6763466927
  C         1.7393000579       13.2580246340        9.6191624582
  H         1.9266660903        9.6937494359        9.7378905789
  C         1.5483798207       11.3860307006       10.8551648125
  H         0.7995995478       11.6848990637        5.5104738694
  H        -0.0369684514       11.3282956668        7.1199215360
  C        -0.5936717641       10.2302790935        5.2860634995
  C         4.1173073597       14.2702551745        3.8685808116
  C         1.4089847430       12.7108823361       10.8294967136
  H         1.6039520311       14.3345214527        9.5628822906
  C         1.2453270584       11.0236467251       12.1765963336
  H        -1.4231977341       10.9623644604        5.1173708801
  H        -0.9712255241        9.2522990801        5.6940600228
  C        -0.0744931298       10.0275742410        3.7904075301
  C         4.1807227620       15.6566298458        3.6042374815
  C         4.5892389497       13.4516105981        2.7502075865
  C         1.0510377296       13.4131480589       12.1247881700
  C         0.8489265939       12.0995340883       12.8852387477
  S         1.0861555070        9.4961686179       12.8833779190
  H         0.3785593702        9.0865211461        3.6646271415
  H         0.6245492003       10.7849203866        3.4837335478
  C        -1.2438846632        9.9144708527        2.8111457725
  N         3.8330691697       16.6152695874        4.5375255952
  C         4.4927801765       16.2106530275        2.4047878645
  C         4.9323445390       14.0030771990        1.5192856801
  H         4.7624086276       12.3908131147        2.7421957447
  C        -0.2595644859       14.2408721359       12.0217516186
  C         2.1180186980       14.2930780250       12.7516595531
  C         0.3640670560       11.6285069470       14.1189554480
  C         0.4831374723       10.2636621358       14.2493313388
  H        -2.0706354272        9.2963059093        3.2200319905
  H        -1.6679191440       10.8757452391        2.5402595733
  C        -0.6835270887        9.4079820069        1.5110808222
  S         3.8965005904       18.1479537312        3.8431680502
  N         4.5474388859       17.5957621804        2.4629898466
  C         4.8522360258       15.4559884496        1.2434950280
  H         5.3879043162       13.3659462145        0.7933909033
  H        -0.1007245719       15.0492363533       11.3008134574
  H        -0.4111544496       14.8670759878       12.9127766940
  C        -1.4849355801       13.4410018272       11.6685550460
  H         2.5588294850       14.8819579497       11.9784682530
  H         1.6643467931       14.9881443061       13.4646711198
  C         3.2441078928       13.4984044859       13.3957237040
  H        -0.0526788362       12.3150673777       14.8632182150
  C         0.1444593825        9.5110643626       15.5047916827
  H        -0.3561154954        8.3753464194        1.5234599204
  H         0.2107399289        9.8948131518        1.2071621818
  C        -1.6455878194        9.4860279281        0.2654568386
  C         5.0896270257       16.0117999267       -0.0443336903
  H        -1.1731005099       12.7555964125       10.8208677430
  H        -1.7781471964       12.7750109542       12.5318873595
  C        -2.7378611595       14.1755121859       11.1118291080
  H         3.6426905937       12.7269542841       12.7340061038
  H         2.8357334462       13.1027661451       14.3070505299
  C         4.4387958260       14.3909098359       13.8341210077
  C         0.0742114854        8.1192239426       15.6316876949
  C        -0.0505882351       10.2583468676       16.7513247328
  H        -1.8110081368        8.4694034440       -0.1148071899
  H        -2.5713072483       10.0782644483        0.5087286360
  C        -0.8995893745       10.1289553505       -0.8746168647
  H         5.0713981906       17.0767694500       -0.0003018648
  C         5.2986695861       15.4312575669       -1.2294107798
  H        -2.4415029019       14.9838172984       10.4767258756
  H        -3.3253230926       14.6958060650       11.9319552667
  C        -3.6650231270       13.2055357765       10.3961836202
  H         4.9546416284       14.8535041996       13.0256887119
  H         4.0577619161       15.0809000270       14.5920377538
  C         5.5820162822       13.6904520838       14.5389954701
  N         0.2934190549        7.2140455569       14.5874565713
  C        -0.2504275055        7.4486427411       16.8315463258
  C        -0.3520142588        9.6134603492       17.9993085655
  H         0.1557016225       11.3390047865       16.7895414396
  H        -0.1124475189        9.5520551150       -1.2919661214
  H        -0.3707518589       10.9622058211       -0.5279981185
  H        -1.5681638293       10.4876124801       -1.6903340806
  S         5.4475641770       13.7886207695       -1.7363651202
  C         5.4539628267       16.3679527303       -2.3603649417
  H        -3.0789516754       12.5956722012        9.6934887530
  H        -4.1175462677       12.5706797728       11.1347161301
  C        -4.7655032415       13.9072878225        9.5485483186
  H         6.1519134429       13.0348925736       13.8073434119
  H         5.1038905053       13.0654906852       15.3852887790
  C         6.5420736657       14.5921819790       15.3351238695
  S         0.1168165289        5.7213667117       15.0966485393
  N        -0.3619780033        6.0842891352       16.6621529494
  C        -0.5849463830        8.1156229611       18.0130593145
  H        -0.4805787853       10.1711007197       18.9345971463
  C         5.7299313501       14.3409890628       -3.4319424621
  N         5.7708116067       15.7095303961       -3.5248538658
  O         5.2188345527       17.5446103829       -2.2733655227
  H        -5.1678891182       14.7964037684        9.9885172912
  H        -4.2469074180       14.3392387572        8.7797926488
  C        -5.8862402728       13.0269382156        9.1240605426
  H         6.1619144142       14.6147541898       16.3686879698
  H         7.4227008095       13.9860963718       15.4351731722
  C         6.7730486040       15.9415460953       14.6905078720
  C        -0.9283762471        7.2939738386       19.1426935359
  S         6.2864708627       13.4442334062       -4.8567919623
  C         5.8794432086       16.4543238215       -4.7868500387
  H        -5.7001533808       12.2530612433        8.3587504297
  H        -6.2554714095       12.3426741454        9.9551669585
  C        -7.1601802084       13.7825596777        8.7885133443
  H         5.8610299440       16.5336182169       14.7735879056
  H         6.9139562397       15.9056372754       13.5480065104
  C         8.0472410984       16.5482860681       15.1893812263
  H        -1.0711820771        6.2047136699       18.9614304774
  C        -1.4499040150        7.6247756028       20.3591243090
  H         6.6465729889       15.9363363686       -5.4186099101
  H         6.2496853526       17.4714125121       -4.6966460562
  C         4.5790026008       16.3280213737       -5.5604729892
  H        -7.6944181713       13.2690594788        8.0224933219
  H        -6.9491090441       14.6995436713        8.3310010667
  C        -8.0825074811       13.9481550745        9.9832340028
  H         8.1568036534       16.1956829013       16.1922870646
  H         8.8545676498       16.0054483656       14.7103708469
  C         8.0435795695       18.0282340471       15.2490793440
  S        -1.9667581945        9.2153504434       20.8858980479
  C        -1.7616018207        6.6076509747       21.3408522271
  H         4.7213974198       16.3335940019       -6.6708981153
  H         3.8646385372       17.0895963334       -5.2401708496
  H         4.0178342831       15.3584239606       -5.4472663928
  H        -7.5146131708       14.4942000491       10.7461460234
  H        -8.9259167314       14.6007991993        9.9314148401
  H        -8.4835981953       13.0126774947       10.3980208379
  H         8.5147899942       18.3625784633       14.3295273832
  H         6.9584266716       18.4400292345       15.2897532403
  H         8.6705760999       18.2957480390       16.0038487196
  C        -2.2591903834        8.5085768633       22.4275040687
  N        -2.2386080640        7.1466983214       22.4730616620
  O        -1.7289801040        5.3721030100       21.1113304547
  S        -2.8325300243        9.3639523873       23.8062499384
  C        -2.5474913054        6.2895727995       23.6362806824
  H        -3.1294602534        5.4061407186       23.4066672521
  H        -3.2340729760        6.6863576125       24.3273542322
  C        -1.2605462564        5.6884044053       24.2675749568
  H        -0.6948294647        6.4748754627       24.8557762698
  H        -0.6665067867        5.2391393456       23.5591099126
  H        -1.5939196553        4.9761381160       24.9383711571
