352
i =
  H        -4.0642016908       13.0287537775       16.7191041258
  C        -3.0901163027       12.6380521131       16.5870906131
  H        -3.0406986674       11.6943672571       17.1608677608
  C        -2.2025371643       13.7406737093       17.1998057304
  C        -2.7910759342       12.4765201176       15.0803820740
  C        -2.4049231517       14.0131991137       18.6614510387
  H        -1.2138530632       13.3650570827       17.2464217095
  H        -2.2490696577       14.5855110794       16.5436745139
  H        -1.9614921622       11.8563988747       14.9037431598
  H        -3.5588796705       12.1097679871       14.5048414255
  H        -2.5414059100       13.4120741796       14.6503549137
  C        -1.4479837076       13.1342128254       19.4913530931
  H        -3.4036526430       13.8443166614       19.1030893106
  H        -2.1624562146       15.0752310650       18.7758467851
  C        -1.7970661476       13.0494364213       21.0198006190
  H        -1.4905823885       12.1186420061       19.1305952192
  H        -0.4014791131       13.3330556552       19.2709492508
  C        -0.7672450749       12.4147525975       21.8891918445
  H        -2.7649257633       12.6682438832       21.1683252287
  H        -1.9484981968       14.0860951626       21.2785115465
  C         0.2743936130       13.4451972971       22.3650966009
  H        -1.1831589558       11.9378248112       22.8200218717
  H        -0.3167831835       11.6026680931       21.3624249109
  C         1.4555615042       12.7620325948       23.1115076027
  H         0.6150756675       14.0542382093       21.5207072520
  H        -0.2946861547       14.1313718809       23.0626954324
  C         1.8544155031       11.4496781532       22.4662566291
  C         1.0774742627       12.0534724367       24.3472622015
  C         2.6528745806       13.8081299077       23.3237832885
  C         1.6759807974       10.3015578461       23.2420663886
  C         2.3670162785       11.0702561222       21.1793290955
  C         1.2547828149       10.7254426250       24.5072596513
  C         0.4021076028       12.7273706863       25.3988980386
  H         2.7941966625       14.3632839474       22.4153519207
  H         2.2121820053       14.6031554684       23.9304813277
  C         3.9056499956       13.2918930818       23.9917330265
  S         1.8695305560        8.8069844417       22.3983114519
  C         2.3678462091        9.7406779681       21.0038019726
  H         2.5849656034       11.8395107852       20.4299360873
  C         0.7318879151       10.1209027491       25.6410546232
  H         0.3659395151       13.8052929760       25.3579320971
  C         0.0671175453       12.1544342703       26.5907771890
  H         4.4060963003       12.6092979426       23.2284502077
  H         3.5859316500       12.7468978849       24.8725310824
  C         4.8802881757       14.3678014027       24.4023662959
  C         2.6723942353        9.0083161768       19.7606750606
  C         0.2015786460       10.8126388468       26.7577920529
  H         0.6848770828        9.0045475600       25.7116055095
  C        -0.3421473126       12.6421536928       27.7687786986
  H         5.6484092633       13.8780146603       25.0059781149
  H         4.4181723373       15.1089826904       25.0593832715
  C         5.4850144018       15.0413715723       23.1683838178
  C         2.6120907558        7.6487004966       19.4896212395
  C         3.2120280844        9.8640555891       18.6585826489
  C        -0.2501896815       10.1576426999       28.0857166641
  C        -0.5362357752       11.5922176120       28.6766647173
  S        -0.6444260387       14.2349130676       28.3696229064
  H         5.8847189634       15.9408658082       23.6291040905
  H         4.7824148839       15.3558990321       22.4179715623
  C         6.6603646534       14.2668895629       22.5771339989
  N         2.3956983708        6.6121294318       20.4271360912
  C         2.7496151527        7.1176676544       18.2228045517
  C         3.3870586097        9.3079093769       17.3882517024
  H         3.4190085573       10.9750946625       18.8278558509
  C         0.9086106080        9.3516657850       28.8539563131
  C        -1.4747395344        9.2801420972       27.8888512125
  C        -0.8960831930       12.1534985562       29.9047791749
  C        -0.9521355349       13.5091274881       29.8979575571
  H         7.3968245203       14.9771929007       22.4047223163
  H         6.8986870420       13.4414733136       23.2176631348
  C         6.3153257520       13.6448875529       21.2643589941
  S         2.1699983464        5.2072237847       19.6584764101
  N         2.5530668823        5.7237149710       18.1785795348
  C         3.1881336577        7.8509873278       17.1005280484
  H         3.6633527876       10.0335994407       16.6348824354
  H         1.2525797733        8.5121587417       28.1825795666
  H         0.5041801957        9.0555437230       29.8258469401
  C         2.0710763039       10.2894799587       29.2552349578
  H        -1.2574753178        8.4347309612       27.2462337809
  H        -1.6798634631        8.7846004997       28.8526980695
  C        -2.7064113064       10.0006012004       27.3810961929
  H        -1.0900145311       11.4214646091       30.7501220252
  C        -1.1737170967       14.3067262212       31.1124254871
  H         5.4932111915       14.2037036844       20.7885910288
  H         5.8522490301       12.6645155992       21.5098332489
  C         7.5258017001       13.5514849774       20.3389260365
  C         3.4150532861        7.1497444851       15.8885319701
  H         2.5105758761       10.9205432126       28.4427801856
  H         1.7057497036       10.9439623839       30.0681829714
  C         3.1909598890        9.4491531754       29.7685842523
  H        -2.5722491884       10.3901725105       26.3725284870
  H        -2.8015000062       10.8594471969       28.1010078557
  C        -3.9295613092        9.1424827384       27.5985365412
  C        -1.2702676672       15.7046533576       31.1831954695
  C        -1.5692907880       13.5517110531       32.3378877530
  H         8.2371242868       14.3243442501       20.5720450407
  H         8.0214965412       12.6404313954       20.5618777810
  C         7.1854589388       13.6788389786       18.8926757042
  H         3.5172942996        6.1105642769       15.9726486572
  C         3.5822456469        7.6120867525       14.6062174530
  H         3.4954065914        8.8406158392       28.9042940623
  H         2.7329181969        8.9244300668       30.5458949595
  C         4.3209741738       10.3099984648       30.2850556137
  H        -3.9750917458        8.3130618490       26.8671537161
  H        -3.8421520734        8.8452147208       28.6847796258
  C        -5.1795823744        9.9332569890       27.5369181879
  N        -1.0342241843       16.5525864277       30.0810806809
  C        -1.5835856982       16.3724588779       32.3291360113
  C        -1.7636190945       14.2164112841       33.5770457350
  H        -1.3503566682       12.4952707405       32.4916586708
  H         6.1903558466       14.1667568128       18.8111043859
  H         7.8702779987       14.2595036943       18.3241609367
  H         7.2384326598       12.7875446296       18.3012265618
  S         3.9010725248        9.2669686413       14.1113801125
  C         3.7562438179        6.6260287412       13.4582489176
  H         4.3428954492       11.2620846144       29.6721895295
  H         4.0307987108       10.5660586303       31.3084708281
  C         5.6255283240        9.6379116671       30.2187167430
  H        -4.8742573658       10.8996195239       27.0629984006
  H        -5.6092884024       10.2316287206       28.4822756465
  C        -6.2434971898        9.3354550513       26.5590120186
  S        -1.3347506486       18.0991468380       30.5486950360
  N        -1.5441850433       17.8006053456       32.1212975434
  C        -1.8349863193       15.7326824510       33.5814788520
  H        -1.9492687686       13.5702549632       34.4881140479
  C         4.3715786541        8.6465844885       12.5813915773
  N         4.2485614101        7.3148365541       12.4250357360
  O         3.6737593853        5.3857927132       13.6122568955
  H         6.3855218347       10.2784041375       30.6710599273
  H         5.7969129773        9.5806144970       29.1596644031
  C         5.7243279289        8.2975176300       31.0213662140
  H        -5.7731245039        8.7526868386       25.8513088919
  H        -6.8438601194        8.6530035550       27.1210475525
  C        -6.9741858779       10.4084417307       25.8299363517
  C        -2.2549298669       16.5732413493       34.7154697710
  S         5.0372325726        9.5577746095       11.2392347738
  C         4.4113695080        6.5841403048       11.1641547049
  H         6.1916304091        8.3848221616       31.9975836512
  H         4.7426786347        7.8696867812       31.2005143000
  C         6.5537109863        7.1042299516       30.3017445550
  H        -6.4136346333       10.5894385318       24.9274595714
  H        -6.9147473386       11.3015759792       26.4020563602
  C        -8.3133933886        9.9245348164       25.5146231751
  H        -2.2618817330       17.6438074873       34.5342364633
  C        -2.7215371385       16.3587130109       35.9690819385
  H         5.2442136996        7.0731496245       10.6420844835
  H         4.7323400306        5.6376783589       11.4768870559
  C         3.1157354611        6.5683854422       10.3562650719
  H         7.5936903206        7.4413824447       30.0817957187
  H         6.0955034377        6.8545724974       29.3193316081
  C         6.5999803056        5.9347946728       31.3297363402
  H        -8.5539790239       10.1633671121       24.4562024800
  H        -8.2386922918        8.8789818112       25.4891357245
  C        -9.4622889193       10.3744579181       26.4588314425
  S        -3.0261535123       14.8577678976       36.7915371218
  C        -2.9591929228       17.5447989473       36.8528415952
  H         3.1499410839        5.6260474508        9.7588075236
  H         2.1601020901        6.5672840619       10.9377941219
  H         3.1628301345        7.3771168836        9.6289447247
  H         5.6867077658        5.4786409417       31.5598147241
  H         6.9918460171        6.2290507266       32.3101580845
  H         7.2060632205        5.0398913543       30.9342883922
  H        -9.2758727754       11.3445273088       26.9450293415
  H        -9.6635884527        9.5373366729       27.1746781286
  H       -10.3668532826       10.4671113768       25.9337697595
  C        -3.5631086033       15.8142482134       38.1496340691
  N        -3.5506634967       17.1194600155       37.9860016610
  O        -2.7467970278       18.7302302956       36.6040796416
  S        -4.2998541173       15.2281655026       39.6689545221
  C        -3.9500227058       18.0919800671       38.9908185744
  H        -4.3584353691       19.0706096699       38.6425485353
  H        -4.7589712092       17.6831943243       39.4570679600
  C        -2.8734118194       18.3371276751       39.9352778240
  H        -2.9903877085       19.2904693703       40.4680020575
  H        -2.8956911681       17.5314676526       40.6540932344
  H        -1.9120510179       18.3446871271       39.4796483055
  H         7.5857957623       10.5392401566        3.2479644862
  C         8.2767021939        9.7370865848        3.2857047460
  H         7.7287936568        8.7880179869        3.5269519398
  C         9.1675182466        9.9160361025        4.5039520027
  C         9.0911405483        9.5353696158        1.9649732695
  C         8.3702266236       10.3971110398        5.7098610921
  H         9.7308565960        8.9811784426        4.6730409929
  H         9.8309380328       10.7520127459        4.2357177143
  H         9.8647898941       10.2729212714        1.7655968314
  H         8.5856594703        9.4201818528        1.0770191710
  H         9.6089388980        8.5697787170        2.0474220481
  C         7.5715986597        9.2841542745        6.3062814304
  H         9.0426898644       10.8081692530        6.4220548539
  H         7.5531547147       11.0470030069        5.4992238997
  C         6.9133927421        9.6675478544        7.6308658458
  H         8.2573144762        8.4991189021        6.4452001710
  H         6.7590633306        8.8968095431        5.5883703248
  C         5.5616539733       10.3901809891        7.4699747601
  H         7.6670721131       10.3151498029        8.2305446433
  H         6.8177932557        8.7499492043        8.2495233254
  C         4.4803689186        9.5280864482        6.8649244435
  H         5.3043033273       10.6804378243        8.4829268744
  H         5.7518735934       11.3307987196        6.9590621376
  C         3.0897631740       10.2846043269        6.7683678395
  H         4.1873922175        8.5999759025        7.3825638515
  H         4.7608992255        9.1550155393        5.9036889968
  C         3.3996541435       11.6142991831        6.1894625842
  C         2.5555523644       10.9247511758        8.1179679470
  C         1.9140808152        9.6050081739        5.9241055011
  C         3.1123737018       12.6885014988        7.0237732030
  C         3.8594092440       12.1038129480        4.9298948667
  C         2.6117684925       12.2595729675        8.2409339056
  C         2.1595244986       10.2432677810        9.2918515423
  H         2.3149956106        9.0792515089        5.0842905281
  H         1.5472424205        8.9197047911        6.6324985791
  C         0.6867060820       10.5320380196        5.6207752035
  S         3.5375763622       14.2341560902        6.4188169819
  C         4.0132888858       13.4667739980        4.9573409617
  H         3.9867749870       11.4384838153        4.0805941950
  C         2.2839312386       12.8983738495        9.4458278333
  H         2.1464545812        9.1527193809        9.2392314525
  C         1.8197672929       10.8459857709       10.4932608562
  H         0.9777310474       11.5485688247        5.2421791690
  H         0.1862808933       10.6400354023        6.5473029023
  C        -0.3445760038        9.9548908207        4.7028078790
  C         4.3806441626       14.2891876287        3.7588394087
  C         1.9321886419       12.2017884088       10.6216842222
  H         2.4467518968       13.9719842896        9.6626334604
  C         1.3457297315       10.4766990264       11.7634120040
  H        -1.3281714068       10.4819241349        4.8433139247
  H        -0.4754931960        8.9404690589        5.0617257633
  C        -0.0657319914        9.8994391579        3.2536644154
  C         4.3355317555       15.6820568632        3.5528878242
  C         4.8909098444       13.5321251040        2.5373041542
  C         1.5679207905       12.9436648200       11.8344107823
  C         1.2995668122       11.6104705662       12.5986924629
  S         0.9976079198        9.0347774343       12.5836643332
  H         0.6708839525        9.0968001862        3.2321854971
  H         0.4612475826       10.8245032485        2.8616272148
  C        -1.3340051237        9.6737506906        2.4834780410
  N         3.9426952068       16.5833279979        4.5414904865
  C         4.6362264309       16.3158340758        2.3520771622
  C         5.1909292383       14.1092089652        1.3004529705
  H         4.9747434676       12.4400299715        2.6391450757
  C         0.3072984881       13.7819663173       11.6088424301
  C         2.8973493662       13.6696936834       12.2642459442
  C         0.9354532792       11.2968284773       13.9253249589
  C         0.6494944003        9.9946850293       14.0720123175
  H        -2.0247320320        8.9627893452        2.9706558051
  H        -1.9461027954       10.6294172847        2.5257364071
  C        -1.0287136192        9.3200911133        1.0257884154
  S         4.0595310766       18.1299941819        3.9517471219
  N         4.7073980524       17.7372168907        2.5093942113
  C         5.0917177851       15.6208017106        1.1964442607
  H         5.3884091567       13.5332811004        0.4151528667
  H         0.5339250024       14.5645161805       10.9379926354
  H         0.0565295249       14.3283138928       12.5244219319
  C        -0.8547335116       12.9400403418       10.9997666629
  H         3.7437135722       13.3546479988       11.6901399410
  H         2.8178475248       14.7489256578       12.0575232220
  C         3.3904923634       13.5509254151       13.7093616463
  H         0.8445950761       12.0553656099       14.5855179314
  C         0.2127273349        9.2538650784       15.3589775965
  H        -1.8337775651        8.7201211906        0.6431567469
  H        -0.0367554143        8.9136658174        0.8945573101
  C        -1.1890280538       10.5781936040        0.1319872932
  C         5.2959707825       16.4007652506        0.0138899603
  H        -0.6692297431       12.7882874866        9.9040122076
  H        -0.9938152177       11.9624918041       11.4728283621
  C        -2.2359829525       13.6374025871       11.1357283248
  H         3.5224740022       12.5100332396       13.9729157269
  H         2.6407491110       13.9883568010       14.3098024286
  C         4.7202096200       14.3110470247       13.8384728370
  C         0.0691319225        7.8313469760       15.4425115472
  C        -0.0501574562       10.0475671925       16.6170179851
  H        -2.1521319011       11.1416991148        0.2939493964
  H        -0.4132550563       11.4159297662        0.3237310582
  C        -0.9513207243       10.0704148178       -1.3724441920
  H         5.2117706384       17.4378874081        0.1634458030
  C         5.5495066941       15.9949965389       -1.3287638210
  H        -2.2741489723       14.4918436093       10.4309387246
  H        -2.4736838267       14.1353714549       12.1171216990
  C        -3.3953474551       12.7825452891       10.7356404390
  H         4.9165504694       14.9271016799       12.9558835021
  H         4.5337404277       15.0401741711       14.6078500303
  C         5.9267991195       13.4505862332       14.2524816062
  N         0.1829073847        6.8994547917       14.3545952535
  C        -0.2518432960        7.1938958142       16.6056042008
  C        -0.4071070556        9.3567075577       17.7676379587
  H         0.1772096506       11.0788658742       16.7098026880
  H        -1.0850665310       10.9755803053       -2.0247783095
  H        -1.6314222937        9.2862328009       -1.6524962136
  H         0.0949884492        9.7779373851       -1.5994177515
  S         5.8518654647       14.4514811286       -1.9755586200
  C         5.4476102213       17.1053447683       -2.4246270909
  H        -2.9934162240       12.0576460914       10.0451274214
  H        -3.8037761764       12.2737058270       11.6159433698
  C        -4.5733895444       13.5558655349       10.0434972570
  H         5.8404611072       12.5477376071       13.6066114721
  H         5.7144772602       13.0014930362       15.2821590780
  C         7.2544967049       14.1411420729       14.0241572368
  S         0.1443617502        5.3711232592       14.9973317167
  N        -0.1535563092        5.8050198262       16.5291134128
  C        -0.4919463358        7.8851958293       17.8410362156
  H        -0.3938712045        9.9123090752       18.7481956247
  C         6.1476822948       15.3023289968       -3.5178848573
  N         5.7453915209       16.5867265466       -3.6270761764
  O         5.2328123176       18.2648526304       -2.0829064064
  H        -5.1675094068       14.0411288205       10.8221207805
  H        -4.2812218935       14.3896048758        9.4193829183
  C        -5.4668019539       12.7257710201        9.1532155768
  H         8.1430297489       13.5042950841       14.1538018823
  H         7.3169421956       14.3589947743       12.9253703140
  C         7.3963576349       15.2566361016       15.0739168121
  C        -0.6391884355        7.1326217395       19.0631374368
  S         6.4839598580       14.5213588145       -4.9940130108
  C         5.4912350097       17.2361047309       -4.9306404109
  H        -4.8178274647       12.2869372927        8.3832154294
  H        -5.8318918507       11.8045010944        9.7036813628
  C        -6.5883866545       13.4797225186        8.3916639635
  H         7.4796967861       14.7118605717       16.0714823373
  H         6.5245096420       15.9339603246       15.2085395835
  C         8.4482199499       16.3440157724       14.8418525823
  H        -0.6198470835        6.0602532871       19.0679056736
  C        -1.0445006504        7.4423569212       20.3393452141
  H         6.2387070114       17.0073926090       -5.7432430401
  H         5.3259700191       18.2868878522       -4.7339902454
  C         4.0245462116       16.8356082260       -5.3528277992
  H        -7.0305764224       12.9106276427        7.5780503718
  H        -6.1554019695       14.3805919760        8.0446962986
  C        -7.7313563688       13.7560081238        9.3167547474
  H         8.6125976000       16.9651819305       15.7591024586
  H         9.3485359087       15.8111840403       14.6699640491
  C         8.2133262629       17.1677512224       13.6256796426
  S        -1.4138177916        9.0055263854       21.0240761581
  C        -1.2941818936        6.3408110892       21.3192074944
  H         3.9557278164       15.8680818292       -5.7640091967
  H         3.6563882058       17.5178234688       -6.0906337418
  H         3.3767805279       16.7966761958       -4.4535275119
  H        -8.5394027870       14.1928330207        8.7188493896
  H        -8.0642844255       12.9555921630        9.8723289658
  H        -7.5297438623       14.5675711287       10.0265850641
  H         8.8264529472       18.0586510318       13.9019873101
  H         8.6147461424       16.5576012780       12.7871905963
  H         7.2208484233       17.4794750214       13.3658975034
  C        -1.8761743245        8.1595760950       22.5195560411
  N        -1.8375049499        6.8278216022       22.4611779704
  O        -1.1198334739        5.1835028774       21.1010661578
  S        -2.7592344339        8.8740019604       23.8723563320
  C        -2.0528761444        5.9205800182       23.6359934026
  H        -2.1991305873        4.9214978705       23.3297532899
  H        -2.9368945866        6.1831039469       24.2636057387
  C        -0.8970707848        5.9928590091       24.6537676474
  H        -1.1127839005        6.8222771420       25.2511330591
  H         0.0386580039        6.1338689712       24.0854500528
  H        -0.8557228590        5.1350430534       25.3485173274
