352
i =
  H        -3.4009531020       12.9171637234       16.2004750011
  C        -2.3071415916       12.7255859527       15.9766771350
  H        -2.0608098529       11.7200617105       16.0731754184
  C        -1.4498709844       13.4796403274       17.0331496729
  C        -2.0922239067       13.2039676720       14.6341936205
  C        -2.2789850273       13.7780136921       18.2965508586
  H        -0.5903830773       12.8677196517       17.1432215218
  H        -1.1695826380       14.4163943244       16.6654718383
  H        -1.1426702155       12.8931735968       14.2703333389
  H        -2.9179736176       12.6277814934       14.1461011405
  H        -2.2028123945       14.2571444484       14.5085400428
  C        -2.0139250263       12.6825398213       19.4067531640
  H        -3.3481930545       13.8561904461       18.1113383223
  H        -1.9803751094       14.7628755015       18.7655385952
  C        -2.4043302176       13.0138704763       20.8448583831
  H        -2.6144120553       11.8805753606       19.0033317934
  H        -1.0408003486       12.2584888749       19.3015658965
  C        -1.4745010296       12.4056563312       21.9030010893
  H        -3.3640974181       12.5737619038       21.0115561744
  H        -2.4983058747       14.0545274439       20.9936702899
  C        -0.2419362708       13.2575898852       22.0684978945
  H        -2.0340472501       12.3939000858       22.8426250633
  H        -1.1560220669       11.4033165496       21.5373211602
  C         0.9140711327       12.7161854672       22.9404803465
  H         0.1137308100       13.5935938539       21.0752136712
  H        -0.6159633512       14.1122505254       22.5856041229
  C         1.4683465791       11.4341987055       22.2568418289
  C         0.5072192898       11.9743048867       24.1157774235
  C         2.0576353555       13.7770975916       23.1609115967
  C         1.1949505802       10.3133459657       23.0625185147
  C         2.0469214926       11.0733238101       21.0121836678
  C         0.7050399482       10.6504175384       24.2796367884
  C         0.1191727042       12.6129760080       25.3125015025
  H         2.2920426708       14.3010711148       22.1891665702
  H         1.7712631601       14.6133654341       23.7992748496
  C         3.3688218739       13.1927830744       23.7435617250
  S         1.6633611392        8.8358015076       22.3438129879
  C         2.1584906052        9.7131233155       20.9847454279
  H         2.2898666102       11.7349976390       20.2863012580
  C         0.3949619537       10.0835574640       25.4445251939
  H         0.0317452007       13.6644332828       25.1290147727
  C        -0.1051872788       12.0338172128       26.4707725857
  H         3.7948870236       12.5005182265       23.0201672770
  H         3.2021244598       12.6635553353       24.7279567756
  C         4.4443913470       14.1963272787       24.0253262630
  C         2.5272552015        9.0011168568       19.6830255024
  C        -0.0068334772       10.7244571461       26.6513842726
  H         0.7176705717        9.0354822282       25.5335808728
  C        -0.3567827336       12.5650223659       27.6991675628
  H         5.1913126278       13.7564739206       24.7233226145
  H         4.1971503524       14.9947543805       24.7287635382
  C         5.0574905635       14.7804153027       22.7335627904
  C         2.5494372256        7.5899845256       19.4803845282
  C         3.0956954206        9.7796279038       18.5758083457
  C        -0.2805576125       10.0980282226       27.9628566027
  C        -0.4979602520       11.5648621279       28.6187751155
  S        -0.5567148534       14.1518291896       28.3502458834
  H         5.4643443767       15.8095232414       22.7621425811
  H         4.2225875121       14.8756698301       21.9796898966
  C         6.1959922730       13.9380851041       22.2388504335
  N         2.1972195230        6.6345506379       20.3925552868
  C         2.9960178068        7.0503211848       18.3041313710
  C         3.3359573253        9.2018207259       17.3526143910
  H         3.2207262089       10.8678724169       18.6451464625
  C         0.9224702963        9.4428438687       28.5900405486
  C        -1.5711892486        9.2846087387       28.0634009357
  C        -0.8533210668       12.0509460538       29.8790981305
  C        -0.9910910615       13.4082584761       29.8237206884
  H         7.0003271822       14.4131788896       22.7694461675
  H         6.0006952309       12.9694763180       22.5920413225
  C         6.3606207635       14.0119627313       20.7520489911
  S         2.2947551500        5.1944134393       19.6338357603
  N         2.9416416246        5.6547783151       18.2737598108
  C         3.2733720424        7.7426846901       17.1459810729
  H         3.6860416692        9.8228450386       16.4997069861
  H         1.3380865735        8.7683974236       27.8463177686
  H         0.5981747081        8.7322936950       29.4387821384
  C         2.0578670651       10.3419239819       29.1697443535
  H        -1.4534892148        8.3544398723       27.5011232566
  H        -1.5760795548        8.9502922049       29.0915781071
  C        -2.8985889634       10.0581726377       27.7424156072
  H        -1.1354565923       11.3245522854       30.6600223746
  C        -1.3534828668       14.2815368842       31.0473843297
  H         6.2164480147       15.0739967343       20.5473951617
  H         5.5977362183       13.4911344600       20.1394622119
  C         7.7917979572       13.4905359041       20.3949284496
  C         3.5203678731        7.0855423269       15.9055869532
  H         2.4657064726       11.0298005614       28.4448788888
  H         1.6706991100       11.0714553330       29.9047152087
  C         3.0968280548        9.5129894031       29.9226191951
  H        -2.7019273405       10.6873307588       26.7983441052
  H        -3.0195145313       10.7689798760       28.5395631198
  C        -4.1071816472        9.1500074665       27.5722563631
  C        -1.5279142612       15.6540158390       31.0267418716
  C        -1.6197470744       13.5709784117       32.3715004609
  H         8.3929904615       13.7893195859       21.2327808937
  H         7.7991151635       12.3979660395       20.4897196460
  C         8.1987731378       13.9644459505       19.0160177759
  H         3.3665571013        5.9933251424       15.8463645588
  C         3.7863761474        7.5612936892       14.6093896362
  H         3.2622405790        8.6247079269       29.4335287084
  H         2.8631046397        9.2210165375       30.9417172168
  C         4.3855785838       10.3299524732       30.0627575441
  H        -3.9077151663        8.4301004365       26.7205277675
  H        -4.1087792669        8.4894421565       28.4865688946
  C        -5.4771035199        9.8964726565       27.4791928204
  N        -1.2960723136       16.5032553607       29.9446170525
  C        -1.9278177861       16.3856690937       32.1583707899
  C        -2.1968188720       14.2919121871       33.4038876834
  H        -1.6374707487       12.5097146325       32.3727437416
  H         7.3306389651       14.2931614444       18.4573380552
  H         9.0742535914       14.6801907973       18.9527015271
  H         8.7189493642       13.0955812481       18.5364582150
  S         4.0539612415        9.2214506379       14.1885934953
  C         3.7139380333        6.6534797046       13.4604318961
  H         4.4286303712       11.0979634970       29.2952324430
  H         4.4060255334       10.7598101004       31.1104569450
  C         5.5982806229        9.3711260167       29.9708472077
  H        -5.3475934678       10.8800222732       27.1575488051
  H        -5.9529297021        9.9744115218       28.4732811770
  C        -6.3842952151        9.3355890855       26.4055471063
  S        -1.3230342090       18.0339150409       30.3997037506
  N        -1.7618407190       17.7428192253       31.9799263279
  C        -2.2447550204       15.7951384041       33.4224976722
  H        -2.4423109481       13.7239493049       34.3363860478
  C         4.1406139136        8.6479612444       12.5442182785
  N         4.0170720168        7.3156885956       12.3576238441
  O         3.4616473637        5.4635373323       13.5886301812
  H         6.4867276038        9.9434023196       29.8056815353
  H         5.6223565096        8.7496087769       29.1025177970
  C         5.5997302156        8.5558571787       31.2409105225
  H        -5.7831967056        9.1282882605       25.5216683315
  H        -6.8319939003        8.4484435878       26.6688537567
  C        -7.4670288696       10.4006932748       26.1102229914
  C        -2.5875840070       16.6180379817       34.5489358851
  S         4.7396537815        9.5993961071       11.1974627076
  C         4.0310048330        6.6399279748       11.0639052745
  H         6.5852666516        8.8270897287       31.5643078882
  H         4.9047778817        8.8914140370       32.0205003673
  C         5.5896279988        7.0336296093       31.1344068265
  H        -7.1064317684       11.2671753728       25.6189994236
  H        -7.9498348784       10.7598220942       26.9843985036
  C        -8.5112699348        9.7629425716       25.2003068848
  H        -2.3694559975       17.6536394626       34.4528566939
  C        -2.8488806978       16.2949993913       35.8623710528
  H         4.5067797901        7.2190471818       10.3446487670
  H         4.7371876430        5.7875519687       11.1406633814
  C         2.5962810791        6.3150491718       10.6225762072
  H         4.8443166717        6.8062639758       30.3509275904
  H         5.0224589122        6.6128669926       31.9956631415
  C         6.9906317846        6.4187238760       30.8750512411
  H        -8.6080482241       10.3320785007       24.3141232353
  H        -8.3079260514        8.7456518207       24.8391850843
  C        -9.8097113947        9.7003909785       25.9302588261
  S        -3.1600088612       14.8085885070       36.6603298120
  C        -3.0260662116       17.4757321913       36.7958801519
  H         2.4503933914        5.6946280738        9.7585990860
  H         1.9737135473        5.9142378262       11.4091468118
  H         2.1632496453        7.2773605300       10.3679718372
  H         7.8150431282        7.1416073101       31.1952955850
  H         7.2114094034        6.2469496553       29.8517549309
  H         7.1173122881        5.5267534661       31.4059527841
  H       -10.1013499164       10.7083961735       25.9765144168
  H        -9.7408537086        9.2207896918       26.8581210290
  H       -10.6066883873        9.2098265860       25.3400830517
  C        -3.5211911022       15.7878673384       38.0519369382
  N        -3.3765957804       17.1216435357       37.9657992357
  O        -2.9090779854       18.6403637092       36.4715794410
  S        -3.9717394774       15.1683964975       39.6253001297
  C        -3.6469813307       18.1004757169       39.0536268913
  H        -3.9548994315       19.0106874683       38.6468101311
  H        -4.4506680613       17.7395965167       39.7374039104
  C        -2.3673625499       18.2269477795       39.8431275150
  H        -2.3366559296       19.1679558923       40.3950366248
  H        -2.2150675719       17.3304246513       40.4603513562
  H        -1.5033924074       18.3655711059       39.1441380389
  H         7.6994793678       11.5620942577        3.6613409201
  C         8.0895245644       10.5149939519        3.5605768683
  H         7.2775437535        9.8667475140        3.2533186818
  C         8.6853219674       10.0162841520        4.9190889507
  C         9.0541213414       10.2566429094        2.4846615934
  C         7.6240239858       10.1356068681        5.9967021346
  H         9.0294579020        9.0016089962        4.7262373360
  H         9.5513716122       10.6178459065        5.2186644697
  H         8.7434481536        9.3901527864        2.0323966235
  H        10.0840389049       10.0209467765        2.7859550968
  H         8.9890723147       11.0464917590        1.8000105808
  C         6.9197838347        8.8799556786        6.3559702542
  H         7.9866108259       10.5529253122        6.9193727308
  H         6.8971752685       10.7917354628        5.6330147360
  C         6.0754820091        8.9821446681        7.6794511841
  H         7.6026305565        7.9578917503        6.4698060745
  H         6.4602775408        8.5697739269        5.4741447816
  C         4.9942351279       10.0423954991        7.6864136767
  H         6.8961950784        9.1821628304        8.3375127329
  H         5.6940245009        7.9747148706        7.9908736505
  C         3.7480567824        9.5921957805        6.9443119449
  H         4.7796175001       10.3023534527        8.6990042258
  H         5.4213426472       10.9216053735        7.1758356163
  C         2.5409195147       10.4573497815        6.8521220723
  H         3.5406065583        8.5860923366        7.3328267049
  H         3.9305972455        9.3561118688        5.8713472175
  C         2.9139477901       11.8058677940        6.1927531842
  C         2.2997793303       11.1298200339        8.1553756037
  C         1.2879835146        9.8927709586        6.1513085730
  C         2.8952449227       12.8665056563        7.0706954194
  C         3.2866763095       12.2740585287        4.9287281053
  C         2.5043789940       12.4350355462        8.2895318534
  C         1.7989744133       10.4720190071        9.2761397651
  H         1.5179724334        9.3574569411        5.2448005328
  H         1.0799016710        9.0643992705        6.8392294717
  C         0.0565746983       10.7720714766        5.9718320212
  S         3.6635498304       14.2918310566        6.4741751095
  C         3.7370423127       13.5359863100        4.9001628419
  H         3.2625305366       11.5901378660        4.0871064415
  C         2.2929468036       12.9949140339        9.5164525923
  H         1.5732157958        9.4264520293        9.1662375923
  C         1.5908994739       11.0624401236       10.4439876716
  H         0.2866060558       11.6435459356        5.3930680047
  H        -0.4296339260       11.1489671487        6.9017071958
  C        -1.0227432230        9.9829903452        5.2150105263
  C         4.4684718761       14.1478698577        3.7600180399
  C         1.7924699301       12.3729544527       10.6633521525
  H         2.3071186626       14.0846455257        9.5906874526
  C         1.2567560059       10.5943384163       11.7189276163
  H        -1.9433915499       10.5834956299        5.0797941298
  H        -1.3268974182        9.1141574483        5.8587962489
  C        -0.5968819671        9.5602834574        3.7841705983
  C         4.5550923516       15.5304570235        3.5923773463
  C         4.8073110651       13.2876499207        2.6504978484
  C         1.5097439161       12.9839922583       11.9533332041
  C         1.1281142802       11.6476361000       12.5986952976
  S         0.8689743882        9.0863488647       12.4229046697
  H         0.0246428366        8.6321561833        3.6933462115
  H         0.0885601918       10.3539291920        3.4842231635
  C        -1.6251656736        9.3262929934        2.7230279358
  N         4.1266936619       16.4859181565        4.4992884484
  C         4.9622355399       16.0809480767        2.4086570459
  C         5.1302394526       13.8789125648        1.5040929961
  H         4.8063556823       12.1809492286        2.7259223116
  C         0.2890184087       13.9303533060       11.8511388235
  C         2.7738091161       13.5972401698       12.4701464947
  C         0.7365575133       11.2414732829       13.8884992426
  C         0.5768286464        9.8830368244       13.9224057433
  H        -2.2533139213        8.4325274683        2.8706925909
  H        -2.3352657791       10.1771329704        2.6624221166
  C        -1.0296225532        8.9254997600        1.4199471023
  S         4.2650740625       17.9172322825        3.8060008375
  N         4.8184250807       17.4717343089        2.3951752956
  C         5.3449600233       15.3234841235        1.2788181757
  H         5.4681416309       13.2490147265        0.7125936244
  H         0.5776113149       14.7598069692       11.1439632144
  H        -0.0394739635       14.3483365132       12.7965112034
  C        -0.8758559126       13.1501880086       11.1807887716
  H         3.5478891872       12.9282276713       12.0035817223
  H         2.9272305368       14.5898262272       12.0389633359
  C         2.9666232322       13.6335665786       13.9654989464
  H         0.7054664062       11.9569201141       14.6651512131
  C         0.3190653345        9.0988194391       15.2185864720
  H        -1.7331686234        8.3230860066        0.8837757648
  H        -0.1089459885        8.4568900258        1.6212746085
  C        -0.6739050824       10.1442617499        0.4886475323
  C         5.5820299242       15.9997278539        0.0325218041
  H        -0.7414113301       12.8492329744       10.1423461761
  H        -1.2033595067       12.3283429702       11.8310490517
  C        -2.1436235681       13.9515752162       11.0264603307
  H         2.8092955945       12.7369482887       14.5272553522
  H         2.2218575397       14.2980674663       14.4090015674
  C         4.3521993054       14.0998075036       14.4674045823
  C         0.3173951249        7.7320624549       15.3961847477
  C         0.1102708416        9.7712568884       16.5193617823
  H        -1.5990128240       10.7038183778        0.0965105990
  H        -0.1841528972       10.9005172250        1.1277984789
  C         0.0999005600        9.8065683221       -0.6740348480
  H         5.7782733594       17.0676992115        0.0973625088
  C         5.8080993501       15.6182933946       -1.2342814412
  H        -1.8462513850       14.5953588374       10.1801253593
  H        -2.4369607830       14.6356334439       11.8815834657
  C        -3.4049492536       13.0914210729       10.6999452923
  H         4.7065442239       14.8809897594       13.8337972016
  H         4.2105219990       14.6833080050       15.3694966086
  C         5.3994911708       13.0723034609       14.4510415099
  N         0.7423898112        6.8882203206       14.3751576237
  C        -0.1095467321        6.9995471857       16.4825532396
  C        -0.1702945413        9.0952357111       17.7405511417
  H         0.0956851004       10.8865251991       16.6127272087
  H         0.1092583516       10.5770501597       -1.3986500258
  H        -0.4466589450        8.9107005894       -0.9862486640
  H         1.1378905061        9.6564620573       -0.4927770386
  S         5.7187406036       14.0137559493       -1.6929356832
  C         6.1825399530       16.7433232626       -2.1993375075
  H        -3.1619311755       12.2892898845       10.0332326373
  H        -3.7806015811       12.7109031597       11.6578988795
  C        -4.4927273428       13.8777064099       10.0413582551
  H         5.1826082998       12.1872404931       13.8225926208
  H         5.4856450787       12.6925708457       15.4794774556
  C         6.7698215606       13.6353783325       13.8789953081
  S         0.5368030597        5.3442606797       14.8221375630
  N        -0.1341674751        5.5713246190       16.3323874180
  C        -0.3862057021        7.6093374388       17.7168974594
  H        -0.2130067366        9.6334387788       18.6840637519
  C         6.0697797844       14.7721702915       -3.3372079997
  N         6.3435716188       16.0429703627       -3.3816202882
  O         6.3414654019       17.9544856974       -1.9368947390
  H        -5.1248527778       14.3723786504       10.7739903046
  H        -4.1044204432       14.6494868980        9.3901113422
  C        -5.3026950441       12.9797907427        9.1015632740
  H         7.4744359344       12.8152371709       13.8630273801
  H         6.6349350581       14.0989279620       12.9162004953
  C         7.2685934559       14.6192497736       14.8531807863
  C        -0.8147697088        6.8362524120       18.8214145786
  S         6.2242379240       13.8514216292       -4.8521644917
  C         6.4883821051       16.7857406456       -4.5226185577
  H        -4.8452985482       12.6739184315        8.1417275176
  H        -5.5260198765       12.0601680915        9.6904211166
  C        -6.6823829161       13.4167383608        8.6750648627
  H         7.7591920000       14.0973442480       15.7023894140
  H         6.4316979005       15.1344458142       15.4207252800
  C         8.1788736264       15.7257652441       14.3826898299
  H        -0.6783310009        5.8202217182       18.8094754019
  C        -1.3135422238        7.2313813934       20.0766508384
  H         7.2334032765       16.3482520859       -5.2105830981
  H         6.9390878700       17.7760923218       -4.3201232969
  C         5.0683225850       17.0412579467       -5.0405173162
  H        -6.9146883484       12.6705705176        7.9154648260
  H        -6.5820202393       14.4470443740        8.2888581197
  C        -7.7575837793       13.2576277551        9.7815884972
  H         9.0364092532       15.9689550388       14.9493738622
  H         8.6072015064       15.3440894144       13.4393533006
  C         7.4851977168       17.0915813832       14.1527486129
  S        -1.8722893086        8.8201409389       20.4742150809
  C        -1.4726426958        6.1662041556       21.1082288471
  H         4.8705122161       16.8080413853       -6.0589814727
  H         4.9450482384       18.0977918582       -4.8999367027
  H         4.3163448386       16.5784509661       -4.5248967031
  H        -8.5729664151       13.7600834110        9.3936164392
  H        -7.9865041887       12.2042296022       10.0764224898
  H        -7.5566623871       13.7996926242       10.6476741385
  H         7.2190187615       17.5549637281       15.0940136486
  H         8.2284591291       17.6561684040       13.6025154844
  H         6.6089749633       16.9202929672       13.4814738840
  C        -2.1042006776        8.0953415320       22.0759816901
  N        -1.8882592706        6.7336542980       22.2428876796
  O        -0.9897675008        5.0099506864       21.1213725470
  S        -2.5957927716        9.1466529758       23.4469050955
  C        -2.0243304500        6.0482212677       23.5295768375
  H        -2.2203560833        4.9778884023       23.2784702832
  H        -2.8157978731        6.3832402845       24.1618837181
  C        -0.7049294962        6.1485523475       24.2484266511
  H        -0.8408007426        6.8486794894       25.1159496811
  H         0.1209449521        6.4661679997       23.6690688027
  H        -0.4505171105        5.2798811737       24.8111201772
