352
i =
  H        -3.8425094491       14.8322493883       16.5538081996
  C        -3.5492398068       13.7739462813       16.6742617951
  H        -4.4887767696       13.3233106432       17.1066516607
  C        -2.4114127752       13.6880130770       17.7245490060
  C        -3.3542477737       13.0970723793       15.3132258446
  C        -3.0224523914       13.4627420763       19.0883083576
  H        -1.7931904762       12.8301579740       17.5413023148
  H        -1.7415714801       14.5460148177       17.7647375047
  H        -3.2215094535       13.9056417389       14.6128181349
  H        -2.5559499356       12.4404515209       15.3536501159
  H        -4.2979605267       12.5228935912       15.1169087922
  C        -2.0095848611       13.1409603136       20.1629423038
  H        -3.8440194444       12.6780806191       19.1287441895
  H        -3.6284756456       14.3475770137       19.4278496626
  C        -2.5400883522       13.0839176186       21.5970029352
  H        -1.6174280320       12.1462951448       19.8982634684
  H        -1.1570617504       13.7741746893       20.1213908800
  C        -1.4675219870       12.6381094738       22.5353854821
  H        -3.2561997464       12.2891019691       21.6082074552
  H        -3.0236799882       14.0529616754       21.9143116554
  C        -0.3447414760       13.6145911424       22.8632288650
  H        -1.8892260620       12.3846470445       23.5408403227
  H        -0.9544243932       11.8030776991       22.1086499184
  C         0.8518899902       12.9461065898       23.5137406163
  H         0.0689223213       14.1252355397       21.9885393824
  H        -0.8526143052       14.3167448461       23.4933982046
  C         1.2887010118       11.6483940034       22.9254588167
  C         0.4939099866       12.2182973104       24.8531844584
  C         2.0405207036       13.9361595054       23.7153657047
  C         1.2037529582       10.5427054052       23.7422257175
  C         1.6921334844       11.2520328399       21.6532012899
  C         0.6708837633       10.8958226587       24.9553303567
  C        -0.0362157874       12.7960762858       25.9957287526
  H         2.0431192657       14.6300249168       22.9010744115
  H         1.7612919423       14.5928461957       24.5720595829
  C         3.4098297043       13.3999057211       24.1943379195
  S         1.5443617936        9.0008998192       22.9767559144
  C         1.8387706434        9.8751107248       21.5301448865
  H         1.9240649527       11.9981735827       20.8813093499
  C         0.2707312159       10.2355868100       26.1102176944
  H        -0.0409946140       13.8703752762       26.0450280698
  C        -0.2811042282       12.1399306697       27.1578016172
  H         3.9521799451       12.7266962496       23.4762925555
  H         3.1295707775       12.9952269625       25.1093071135
  C         4.4012687956       14.4666034841       24.5530424949
  C         2.3426928990        9.2676672487       20.2938466778
  C        -0.1908999561       10.7956811525       27.2618308641
  H         0.3597801421        9.1249774682       25.9323451089
  C        -0.6200857606       12.4795931174       28.3951432086
  H         5.1125639972       14.1019085478       25.2606897835
  H         3.8725614790       15.2895454741       24.9439539129
  C         5.0516516099       15.1437219175       23.3500614065
  C         2.5821120145        7.9069503203       20.1076666031
  C         2.6377558357       10.0850171252       19.0678424194
  C        -0.4090352667       10.0716441681       28.5584063287
  C        -0.7202750153       11.4241918165       29.1903368707
  S        -0.8644369550       13.9850912431       29.2126860914
  H         5.5649155481       16.0083725927       23.8238861776
  H         4.3789364492       15.4003336242       22.5365645281
  C         6.2577421031       14.3703750008       22.7521913822
  N         2.4944260439        6.8956109678       21.0588118067
  C         2.7587008933        7.3495357230       18.8520181907
  C         2.9775220030        9.5066312229       17.7845919072
  H         2.6579148505       11.1634467843       19.2380319834
  C         0.7836981622        9.4082941503       29.1985569167
  C        -1.7249040351        9.2006506546       28.3150942302
  C        -1.0680632721       11.8203295979       30.4794508369
  C        -1.1826588721       13.1318040691       30.6879311938
  H         7.0186024657       15.1495269707       22.6759015807
  H         6.7477316488       13.6264189316       23.3458854285
  C         5.9682098915       13.9110838987       21.3202870016
  S         2.6457491054        5.4436765044       20.3460601862
  N         2.7814941936        5.9539019696       18.8469504671
  C         2.9419340428        8.0057536296       17.6399435641
  H         2.9074480832       10.0381223873       16.8763749548
  H         1.2819672972        8.8007679317       28.3630332728
  H         0.3929114965        8.6438923742       29.8998219058
  C         1.7934877576       10.2594253937       29.9324158290
  H        -1.7182932737        8.5764682559       27.4012266552
  H        -1.8352781136        8.5565152284       29.2108492985
  C        -3.0185924752       10.0244088228       28.2092047102
  H        -1.1929882107       11.0332963629       31.2113171304
  C        -1.5312881299       13.8056487210       31.9703086046
  H         5.3375858724       14.6193579262       20.8281621719
  H         5.3818772456       13.0218663604       21.3718863026
  C         7.2480049685       13.5177829194       20.5981419121
  C         3.0936433836        7.3367479305       16.4059077432
  H         2.1891733561       11.0841451239       29.2613964567
  H         1.4561110069       10.7494394668       30.7943859740
  C         3.0608380732        9.5037144616       30.4336474138
  H        -2.7600620893       10.8173471467       27.4922460820
  H        -3.1341719025       10.5839431193       29.0882893399
  C        -4.3547756518        9.1937414679       27.9385053951
  C        -1.5377796060       15.2089794488       32.1147531458
  C        -1.8802920236       13.0310327205       33.2232769735
  H         8.1356898242       14.1064975016       20.6829059722
  H         7.7052035089       12.5810117730       21.0662638749
  C         6.8754619973       13.3070085154       19.1479476224
  H         3.0208456591        6.2666008881       16.5741849760
  C         3.4556984798        7.6170751129       15.1054057783
  H         3.4368061208        8.8127434958       29.6527324369
  H         2.6495874797        8.9306856304       31.2530888262
  C         4.1100002392       10.3707058398       31.0455426282
  H        -4.1390779483        8.5080136151       27.1055221107
  H        -4.6284026151        8.5364465116       28.7065099156
  C        -5.5653814402       10.0751272523       27.5719468401
  N        -1.2364621544       16.2140962885       31.1530876161
  C        -1.9233382784       15.8671181596       33.2741458759
  C        -2.2269866132       13.6766969097       34.4101544832
  H        -1.8407464521       11.9658309151       33.2448994501
  H         6.7940951201       14.2334083470       18.6356601221
  H         7.6412959702       12.7563155273       18.6608051674
  H         5.8553221685       12.7895022970       19.1044248567
  S         3.8009316847        9.1808323127       14.4219246653
  C         3.5626595692        6.5452816222       14.0817854684
  H         3.9604682046       11.4080994638       30.6535908754
  H         4.0436685797       10.2789607541       32.1510292033
  C         5.5342155630        9.8687595742       30.6496120678
  H        -5.1547056446       11.0863094021       27.2644276923
  H        -6.1598758925       10.3346174977       28.4571235931
  C        -6.3544548927        9.5610992905       26.3970154731
  S        -1.3905552696       17.6831284602       31.7857242387
  N        -2.0107380476       17.2261634104       33.2119121182
  C        -2.2636224401       15.1956474974       34.4536944877
  H        -2.5362328998       13.1146378429       35.2928269892
  C         3.9758704714        8.3988522648       12.8923662370
  N         3.8580375187        7.0962905338       12.8789304376
  O         3.4265001357        5.3330683998       14.3764210117
  H         6.3020841695       10.6375506929       30.8444265692
  H         5.4692952946        9.7559748997       29.5726709434
  C         6.0039342364        8.5704563674       31.3766254627
  H        -5.7109352712        9.0494318826       25.6562797706
  H        -7.0039844229        8.7357022371       26.7235214476
  C        -7.2504367297       10.6051200005       25.7308755006
  C        -2.5148464614       15.9926046401       35.6170377577
  S         4.4414903465        9.2006068548       11.3902280948
  C         3.9199637720        6.3428555042       11.5835990857
  H         6.9757144319        8.6170868594       31.8926463856
  H         5.2901188063        8.2259548130       32.1177375994
  C         6.0889887195        7.4444496298       30.3173365858
  H        -6.6208949568       10.9185886002       24.8927146799
  H        -7.4444681592       11.5081100895       26.2797130372
  C        -8.6051257511       10.0748040235       25.1808572945
  H        -2.2687273129       17.0384927654       35.4392577086
  C        -2.9682993021       15.6331366559       36.9064322064
  H         4.6874214089        6.5258061303       10.8474451013
  H         4.1766153847        5.3617561751       11.9672902911
  C         2.4838769774        6.2828736658       10.9364318523
  H         6.6104999461        7.7666318216       29.4672623977
  H         5.0843473748        7.1027068684       30.0482873502
  C         6.8309506388        6.3329539009       30.9939739462
  H        -9.0256616020       10.6923174258       24.4037145276
  H        -8.3783852604        9.1898945223       24.6657766488
  C        -9.7021457350        9.9879607423       26.2013513388
  S        -3.6851060451       14.1530291793       37.4190083272
  C        -3.0321211522       16.7480647492       37.8805774433
  H         1.6800576693        6.2663613936       11.6353638108
  H         2.3780775215        7.1974635317       10.3529735887
  H         2.4251346512        5.4784846641       10.2541641470
  H         6.4030531240        6.0021910930       31.9462388958
  H         7.8218813515        6.7562765526       31.1215358363
  H         6.8753155150        5.4494666903       30.3816681586
  H       -10.0803662073       10.9102781920       26.4742027812
  H        -9.3698690274        9.4874469065       27.0501697796
  H       -10.5351665730        9.5061714063       25.7162304849
  C        -4.0074449799       15.0157108209       38.9623184107
  N        -3.7445114689       16.3323525300       38.9390528879
  O        -2.5765495222       17.8566513362       37.6865104737
  S        -4.6481274695       14.2256208382       40.4468617833
  C        -3.7238472901       17.2331847495       40.0729201322
  H        -3.9988400892       18.2488894405       39.7475722240
  H        -4.5288646899       16.9851356107       40.7582605235
  C        -2.3882938143       17.2116435903       40.8061044871
  H        -1.5710281511       17.7139366399       40.2779842371
  H        -2.6385084014       17.8314385060       41.7543108232
  H        -2.1037633215       16.1875120791       41.0187065262
  H         7.5019079202       11.0939448305        4.0637099560
  C         8.2576413666       10.2843458854        4.1382758950
  H         7.6164077466        9.3627531098        3.9452798646
  C         9.1077102127       10.0931234887        5.4168278250
  C         9.1533573160       10.3294922175        2.9486104439
  C         8.0981774666       10.3685547623        6.5665365858
  H         9.4565816453        9.0914909205        5.5015032850
  H        10.0060103616       10.8000032401        5.3959682805
  H         9.7845726782       11.2183126779        2.9609182859
  H         8.6062754684       10.3765193660        1.9902545440
  H         9.8004017616        9.4938424760        2.8629891105
  C         7.1252119600        9.1981191959        6.8316099230
  H         8.6537137765       10.4627411615        7.4763361728
  H         7.6243251238       11.3252117178        6.2777945717
  C         6.4565584135        9.2424936445        8.2499914498
  H         7.7108506782        8.2290203521        6.8020180076
  H         6.3244360598        9.1958627608        6.1177969086
  C         5.3250395073       10.3117328360        8.1752799088
  H         7.1303260109        9.6298899299        9.0009285544
  H         6.0786995191        8.2216904733        8.4755129412
  C         4.0125857279        9.5384314568        7.7634623746
  H         5.2013027552       10.8562485878        9.1128638839
  H         5.6210844316       11.0946902038        7.5528033775
  C         2.7553128182       10.4289387512        7.5559183370
  H         3.8079784985        8.8523022707        8.5533834808
  H         4.1786447054        8.9700355923        6.8169442291
  C         3.1452806925       11.7633128214        6.9025022382
  C         2.2058804784       11.1890613147        8.7729420459
  C         1.5907413324        9.7829894363        6.8208201017
  C         2.7888229356       12.9043803401        7.6421131143
  C         3.8283585772       12.1521996201        5.7171034069
  C         2.1755519073       12.5763905979        8.8003932858
  C         1.6843941561       10.5636524919        9.8657794712
  H         1.9192378626        9.3156344296        5.8634330603
  H         1.2885358423        8.9381381875        7.4919478635
  C         0.4313770103       10.7047870012        6.5059295485
  S         3.2636603138       14.4065695637        6.8695932118
  C         3.8956489268       13.5135311765        5.5543557021
  H         4.1951317578       11.4644239144        5.0022223951
  C         1.6500805156       13.1960156319        9.9103265631
  H         1.5516119564        9.4758150745        9.9054097853
  C         1.2305977537       11.1264198687       10.9663004100
  H         0.6729349538       11.7260472700        6.2271040926
  H        -0.1832875579       10.8207871014        7.3671755368
  C        -0.5012123487       10.2074768840        5.4734488708
  C         4.3033126627       14.1579707236        4.2869209396
  C         1.1797070071       12.4812324475       11.0314834959
  H         1.6474457817       14.2923156284        9.8777382109
  C         0.6847604171       10.7026762371       12.1775291744
  H        -1.3620024160       10.8852308947        5.4332395129
  H        -0.8968686568        9.2197313887        5.6857018115
  C         0.0230265019       10.3823674492        4.0255128749
  C         4.1008457457       15.5714696775        3.9607277215
  C         4.8115663414       13.3682042569        3.1213188945
  C         0.6928172801       13.1033780255       12.3575237809
  C         0.4771147028       11.7518429939       13.0280933147
  S         0.5974182175        9.0869718663       12.7969088590
  H         1.0392630047       10.0609424634        3.9392624030
  H        -0.0509195362       11.3982074533        3.8252859687
  C        -0.8625506508        9.7316433674        2.9772756998
  N         3.7018167323       16.5618096568        4.8665411681
  C         4.3056000197       16.0944253461        2.7257600283
  C         4.9734525915       13.9017979659        1.8452625376
  H         5.1016782379       12.3180688760        3.2791883034
  C        -0.5967600729       13.8841608752       12.2085800310
  C         1.8036373564       13.8997281827       13.0875736162
  C         0.0863637493       11.2302081137       14.2569240403
  C         0.2430183822        9.8891063644       14.3744422674
  H        -0.8772941998        8.6776956419        3.2169572144
  H        -1.8693939270       10.0181688236        3.1490878480
  C        -0.4182622923        9.8262416586        1.4928819567
  S         3.6517979545       17.9373413792        4.1149719047
  N         4.1177628422       17.4788827659        2.6677937370
  C         4.7871631508       15.3445615368        1.5954275734
  H         5.2497461112       13.2271190125        1.0216419403
  H        -0.4650761851       14.8135274255       11.7045034255
  H        -0.8763481503       14.2683660730       13.1667376191
  C        -1.7937173828       13.2241997014       11.4442083438
  H         1.8936217332       14.6867398553       12.3424186831
  H         1.4577610739       14.2531835144       14.0394750241
  C         3.0640565090       13.1286511170       13.2698632427
  H        -0.1945842800       11.9151509790       15.0304201633
  C        -0.0711207052        9.1411820813       15.5990303103
  H         0.3755091230        9.0944295505        1.2393859879
  H        -0.0203414832       10.7835492075        1.3900128002
  C        -1.5608578901        9.6230483882        0.5314715531
  C         5.0689689212       16.0336773775        0.3956813319
  H        -1.3663454110       12.9014644495       10.5304798911
  H        -2.2052968735       12.3828382233       12.0035003867
  C        -2.8735486591       14.3703979123       11.2742155528
  H         3.5218186777       13.1088418108       12.2854268526
  H         2.8322059585       12.1483830807       13.6083901360
  C         4.0417338236       13.7210179261       14.2658275704
  C        -0.0130332249        7.7331066280       15.7977916321
  C        -0.4847071491        9.9127255621       16.7823089134
  H        -1.9867734785        8.6451577739        0.7047420400
  H        -2.3127294905       10.3526164909        0.7432445425
  C        -1.1269608952        9.8416687270       -0.9254997606
  H         4.7972203731       17.0124389547        0.3882461173
  C         5.4008742756       15.5874057981       -0.8691631169
  H        -2.4800404528       15.2271080906       10.7210638293
  H        -2.9911287909       14.9379902741       12.2257635969
  C        -4.1902681542       13.8928227709       10.8190363287
  H         4.3848512458       14.6914477230       13.9869067995
  H         3.3727196829       14.0191084310       15.1530163222
  C         5.1995524271       12.8471648970       14.6528892284
  N         0.4157909581        6.8060224239       14.8035789170
  C        -0.2380801730        7.1350343098       16.9928310070
  C        -0.6643649564        9.3164978790       18.0167202762
  H        -0.7314768180       10.9797282818       16.6270619526
  H        -1.9473620873        9.7609402853       -1.5897342564
  H        -0.3518230629        9.1894126098       -1.2031252503
  H        -0.6476229628       10.8142985572       -1.1095895273
  S         5.6294575452       13.9461723414       -1.4065970188
  C         5.4879181128       16.5798785284       -1.9679061822
  H        -4.5389815171       13.0785970890       11.4346498509
  H        -4.9482761569       14.6182262652       10.9223765758
  C        -4.1961749803       13.3859220270        9.3707013934
  H         5.5687862670       12.3829730065       13.7256340913
  H         4.7852435232       12.0559582440       15.2493809767
  C         6.3782519955       13.5447024705       15.3114365855
  S         0.2625064441        5.3385591815       15.4344326212
  N        -0.0994850624        5.7441869826       16.9803676330
  C        -0.5692603594        7.8350302207       18.2481860926
  H        -1.0439744197        9.9643546867       18.7611749550
  C         5.8887685125       14.6410912576       -3.0471280583
  N         5.9370132133       15.9962353823       -3.1159467924
  O         5.3204814305       17.8096109889       -1.7880855028
  H        -3.9201170578       14.2876681800        8.7261705418
  H        -3.3057843766       12.7394781548        9.1549768028
  C        -5.6166539770       12.8412827740        9.0233206536
  H         5.9442211060       13.9783206972       16.2064499121
  H         7.1029415608       12.8108814189       15.6915572135
  C         7.1955199193       14.5008683435       14.4442570571
  C        -0.9484648585        7.1658334897       19.4269246601
  S         6.4370219113       13.7296633891       -4.4380839957
  C         6.0611710890       16.7232762587       -4.3451987733
  H        -5.5614380813       12.2336538867        8.0745217766
  H        -5.9356905545       12.2466596355        9.8476638748
  C        -6.6654562181       13.9150709553        8.7090399735
  H         6.6858244479       14.8280420596       13.5651525296
  H         8.0483616859       13.9841004875       14.1626703964
  C         7.4452507660       15.7779896051       15.1998852493
  H        -0.9332916220        6.1035617666       19.4244589720
  C        -1.3575436978        7.5975534262       20.6776680860
  H         6.8470640250       16.2333778647       -4.9493368977
  H         6.4282875530       17.7473602645       -4.2944197781
  C         4.6720456091       16.6731981968       -4.9632999212
  H        -7.0901367931       13.6426398938        7.7368748475
  H        -6.1195136103       14.8305830432        8.6218893647
  C        -7.7024894756       13.9821810918        9.8866020438
  H         6.4957373802       16.3620816103       15.1390160658
  H         7.5857832461       15.5582303318       16.2544818161
  C         8.6548639579       16.6077210773       14.7172608392
  S        -1.8936661416        9.1441767649       21.0397932000
  C        -1.3857038101        6.5412728212       21.7537535851
  H         4.6200928779       15.8800736033       -5.7190170847
  H         4.3802534403       17.6345663413       -5.3965112274
  H         3.9399901675       16.1927730036       -4.3529913972
  H        -8.4030783179       14.7774024426        9.6220020716
  H        -8.1504801033       12.9887897566       10.1802955172
  H        -7.2099231111       14.3483229022       10.7494443114
  H         8.5342062851       16.9775649717       13.7390159342
  H         8.6948817683       17.5121624462       15.3628036151
  H         9.5264118957       16.0576167969       14.9071005445
  C        -2.3292890286        8.4024153668       22.5808532682
  N        -1.9402157648        7.1575744879       22.8333796138
  O        -0.9454308728        5.3859476102       21.7196478987
  S        -3.0771584078        9.3403058909       23.8504379137
  C        -2.1881329735        6.5177263597       24.0808938867
  H        -2.4480626276        5.4796930102       23.8674837818
  H        -2.8646918879        6.9860727329       24.8040793690
  C        -0.9196106941        6.3531170454       24.8740942099
  H        -0.6895551700        5.3262825890       25.1031656518
  H        -0.9665298661        6.8612044025       25.7448356379
  H        -0.1215414935        6.7717880355       24.2524395656
