352
i =
  H        -2.9188074031       15.4998982358       16.5785433966
  C        -2.6558540326       14.3725606557       16.7053847091
  H        -3.5174838720       13.8391841319       17.1738270888
  C        -1.4376676659       14.4019617322       17.6840397970
  C        -2.3717130328       13.9378389438       15.2605737677
  C        -1.6961403700       14.7324174018       19.1349093282
  H        -0.9303667129       13.4215452838       17.5988046371
  H        -0.6358814143       15.1020927198       17.2969565210
  H        -1.6518679599       13.0948764473       15.2075497930
  H        -3.2274824551       13.4333690191       14.8340898059
  H        -2.2236374103       14.8107312620       14.6434974388
  C        -1.9067594715       13.4559777754       19.9656572250
  H        -2.5398743959       15.3882814896       19.1262487134
  H        -1.0001543414       15.4884363917       19.5200719943
  C        -2.2379732269       13.7130153178       21.4325525276
  H        -2.7740523241       12.8598107306       19.4969281623
  H        -1.0247984988       12.8138353458       19.9182343615
  C        -1.2804722207       13.0591783406       22.4066515931
  H        -3.1608875477       13.1964419721       21.4872649847
  H        -2.4281332613       14.7589796859       21.6377945293
  C         0.0061592874       13.8379193344       22.6071337394
  H        -1.7667315752       12.8797496150       23.4100924655
  H        -1.0114531201       12.0650067711       21.9785213729
  C         1.1375788630       13.0686069450       23.4042055357
  H         0.5252670081       13.9990305574       21.6740742560
  H        -0.1515178527       14.7983573010       23.1345891914
  C         1.5285475237       11.7515129635       22.7003788838
  C         0.6966248236       12.3699600812       24.6726966586
  C         2.3276178203       13.9633780339       23.5653803031
  C         1.2064212984       10.6319530685       23.4924084770
  C         2.0418161974       11.3682045240       21.4829857724
  C         0.7049947558       10.9719769131       24.7648210484
  C         0.1425717277       12.9269129168       25.8567936908
  H         2.8239394893       14.0647484193       22.6048221017
  H         2.0324481330       14.9811403483       23.9129218678
  C         3.4054635645       13.3048056556       24.3665543117
  S         1.6340831586        9.1631072766       22.7893842820
  C         2.1860909555        9.9927987385       21.3433406421
  H         2.2752591078       12.1475167527       20.7612323990
  C         0.2955654378       10.3264613258       25.9178773656
  H         0.1778464029       14.0314124748       25.7954856948
  C        -0.2276706989       12.3493890667       26.9952447279
  H         3.5193947962       12.2180945758       24.1180365979
  H         3.0860318283       13.2586193830       25.3975567898
  C         4.7502136659       14.0426352831       24.3863483870
  C         2.6444736135        9.2491302592       20.1339258559
  C        -0.2022345496       10.9971306046       27.0637008502
  H         0.2950593001        9.2521589657       25.9083096527
  C        -0.6569012054       12.8199308146       28.2408349130
  H         5.3560665402       13.7719722693       25.2315722081
  H         4.5411814895       15.0887018902       24.5972346394
  C         5.4738443101       14.0104840319       23.0409982576
  C         2.5600607988        7.8555728542       19.8665587436
  C         3.0449922523        9.9960878876       18.9363933218
  C        -0.6342352946       10.3983230091       28.3367632858
  C        -0.9125601988       11.7123165880       29.0618085595
  S        -0.8936604815       14.3396634215       29.0027791653
  H         6.2327423372       14.7684440885       23.1917848230
  H         4.8415819336       14.4273774595       22.3123936670
  C         5.9477935636       12.6583197955       22.5820222963
  N         2.1447088472        6.8734345718       20.8147921528
  C         2.7667645407        7.2765212178       18.6191687371
  C         3.2992758906        9.4133829252       17.6572146147
  H         3.1088721173       11.0298884816       19.0276736337
  C         0.3752080485        9.6886944491       29.3558506807
  C        -1.9215310962        9.6251111719       28.1454889004
  C        -1.1726971863       12.1339299727       30.3797113582
  C        -1.3181689442       13.5174316285       30.4693007372
  H         6.8349710122       12.3628391950       23.1351928649
  H         5.0445389994       12.0484334147       22.8616738772
  C         6.2129229980       12.5851089548       21.0612987228
  S         2.1351031952        5.3944524000       20.0741182345
  N         2.4487625381        5.8818862525       18.5387934227
  C         3.2656026617        7.9729740987       17.5065706462
  H         3.6980086197       10.0832438167       16.9095075496
  H         0.6668772781        8.6715089250       29.1293771960
  H        -0.1902763256        9.4626620997       30.2396118147
  C         1.6345326392       10.3839436415       29.7908175449
  H        -1.6918930273        8.8025941895       27.4256135748
  H        -2.1844326426        9.1172404776       29.0582404993
  C        -3.1309765734       10.4845726854       27.6732106615
  H        -1.3354379397       11.4104584624       31.1126394999
  C        -1.6490062204       14.3063665216       31.7013397457
  H         5.2492418659       12.3839433328       20.5328765984
  H         6.7617228576       11.6822125440       20.9433578940
  C         6.9278905992       13.7663468211       20.4080414883
  C         3.4123165524        7.2861695664       16.2466449195
  H         2.1300544871       10.9623430360       28.9209059572
  H         1.3887938334       11.1914052667       30.5130486576
  C         2.6906110296        9.3901044262       30.3832224295
  H        -2.9601848517       11.1354373885       26.8025094989
  H        -3.3432435331       11.2475333959       28.3585430542
  C        -4.4188837865        9.7783202863       27.2567177345
  C        -1.7145737597       15.7261143545       31.8484642399
  C        -1.9955120470       13.5381579032       32.9677838607
  H         6.3297229556       14.6469054892       20.1472592038
  H         7.7417425667       14.0741604872       20.9947428968
  C         7.4711555490       13.2191592389       19.0981597781
  H         3.4345708815        6.2898821840       16.2433611771
  C         3.5681675935        7.7874366498       14.9770914131
  H         2.7447874985        8.4793829059       29.8131542378
  H         2.2758932015        8.9852180441       31.3189844583
  C         4.1330922170        9.8555510369       30.5105814973
  H        -4.1942581514        8.7992113371       26.8199044602
  H        -4.9359686315        9.6026572122       28.2332606959
  C        -5.2722690943       10.6713784591       26.3579017673
  N        -1.6040317939       16.5810514859       30.8118237020
  C        -2.0205183966       16.3866197011       33.0213740682
  C        -2.2627036767       14.2146940540       34.1376271947
  H        -2.0979012390       12.4417247898       33.0389658296
  H         7.9302032834       14.0620850238       18.5728923532
  H         8.3195748945       12.5323432754       19.2772068629
  H         6.6248017151       12.8781088913       18.4911614769
  S         3.8308182827        9.4205137169       14.4997366079
  C         3.5909209089        6.8729699948       13.8058432957
  H         4.2938478902       10.5694219803       29.7594834766
  H         4.4088491451       10.2440148016       31.4809407864
  C         5.1375969464        8.7255658381       30.1248050104
  H        -4.8164687032       10.8861573439       25.4205283135
  H        -5.5843014226       11.6311315685       26.8657000353
  C        -6.5461242466        9.8948148562       25.9739608716
  S        -1.5732476699       18.1254846319       31.3269239798
  N        -1.9748987946       17.8344347592       32.8415773826
  C        -2.2175144267       15.6979278854       34.2159287368
  H        -2.3187497757       13.6708269428       35.1182175004
  C         4.1015454783        8.8048125172       12.8777362147
  N         3.9212734180        7.4933712367       12.7054756490
  O         3.4155564404        5.6447318841       13.9031713760
  H         6.1387756111        9.0490441035       29.9454408499
  H         4.8983323429        8.2802145039       29.1462250093
  C         5.2049465473        7.6331354635       31.1471458597
  H        -6.1995344786        9.1629555383       25.1121364575
  H        -7.0028503613        9.3199830501       26.8494501733
  C        -7.6372768826       10.8315639104       25.5273318189
  C        -2.4770895866       16.4624477122       35.3526132448
  S         4.4608399510        9.8100416649       11.4466466326
  C         3.9118462842        6.8377831313       11.4068072625
  H         5.7426215851        7.9991785731       31.9989554843
  H         4.2319134931        7.3386731915       31.5060628305
  C         5.7784256372        6.3657522600       30.5799626854
  H        -7.2054802460       11.4388277613       24.7914114163
  H        -8.0407897721       11.4027174773       26.3226744541
  C        -8.7153220753       10.0318138135       24.8045641345
  H        -2.1505056386       17.5038263869       35.3448076802
  C        -3.0619359532       16.1954581484       36.5940730802
  H         4.7388775345        7.2311000753       10.8183347291
  H         4.2777065368        5.7561479629       11.5689485387
  C         2.4772464040        6.7602927099       10.7819797188
  H         6.6557332261        6.4532584138       29.9671615543
  H         4.9221693856        6.1985447885       29.9564118125
  C         6.0717191497        5.2903302550       31.5966303721
  H        -8.9897331059       10.5806869792       23.9278797793
  H        -8.4152753928        9.1252901817       24.2581059300
  C        -9.8993437417        9.7477392177       25.7334770136
  S        -3.7396095683       14.6389741504       36.9954529396
  C        -3.1004762756       17.1914799675       37.6563764555
  H         2.3720666932        6.6402317890        9.7680702799
  H         1.8353900295        6.0637391612       11.2727153496
  H         1.8969929550        7.6641318794       11.0737895700
  H         6.7810487560        4.5343859329       31.1982469122
  H         5.2145888227        4.6916817350       31.8962938842
  H         6.5968919536        5.8082812253       32.4207843374
  H        -9.7169151752        8.9703214967       26.5231584033
  H       -10.7521575244        9.4266217532       25.1199890787
  H       -10.2277986092       10.7103670007       26.1668200775
  C        -4.0555223501       15.3419943161       38.5575208681
  N        -3.6470625822       16.5928249789       38.7013267848
  O        -2.6838329055       18.3596221550       37.5549874542
  S        -4.5665831349       14.4831938695       40.0007731822
  C        -3.7170843195       17.2819209598       40.0134960192
  H        -3.9852680176       18.3049030388       39.8434512401
  H        -4.5089162517       16.9408652171       40.7081911786
  C        -2.3327899330       17.2555751228       40.6949635152
  H        -2.4513221354       16.7226868916       41.6478087762
  H        -1.4277036335       16.8538943013       40.2222200184
  H        -2.0735451825       18.3413751077       40.8692169799
  H         7.6442010748       11.5774630838        3.2112588746
  C         8.1387304911       10.6267526865        3.3979918470
  H         7.3447136945        9.8338801385        3.3853202434
  C         8.9857240172       10.5183566309        4.7011223707
  C         8.9950539148       10.3475360476        2.1982867211
  C         8.0423615366       10.6918518265        5.9313066395
  H         9.5591673921        9.5547550939        4.6403434437
  H         9.7522537134       11.2985568620        4.6357300562
  H         9.4853975051       11.2867291144        1.9846751616
  H         8.2903957906       10.1085996723        1.3993544142
  H         9.7863890251        9.5999669151        2.3550179255
  C         7.2088776564        9.5290586592        6.3067500071
  H         8.5843554698       10.9128788865        6.8539229802
  H         7.2720940880       11.5188047308        5.6194870848
  C         6.6967896857        9.5675810455        7.8348590339
  H         7.9196853118        8.7090143697        6.2858522444
  H         6.4250383325        9.2595060923        5.5683402189
  C         5.4585135500       10.4286997530        7.8929641977
  H         7.4987372218       10.0086490510        8.4213523208
  H         6.5269349362        8.5456525243        8.2399779649
  C         4.1384241365        9.8369739867        7.4069159564
  H         5.3278434513       10.9900829530        8.8117020119
  H         5.6070447617       11.1761691240        7.1875670049
  C         2.9114364287       10.7934579302        7.2197449929
  H         3.8599114716        9.0399374877        8.0629936298
  H         4.2852823154        9.2953371479        6.4729268702
  C         3.1956086789       12.1512294501        6.5601819541
  C         2.4258083214       11.4590033080        8.5090869105
  C         1.6672397432       10.1011145910        6.4543173408
  C         2.9229769061       13.2367907450        7.3711294526
  C         3.8018613856       12.5636435995        5.4272633894
  C         2.4538313580       12.8567517028        8.6211647291
  C         2.0019419883       10.8395009846        9.6777325749
  H         1.9235052931        9.8057285237        5.3986487150
  H         1.4743040364        9.1328972225        6.9891758458
  C         0.3644036210       10.9562471008        6.4145759640
  S         3.1559902051       14.7588951968        6.6513434400
  C         3.7669148669       13.9226723653        5.2457686046
  H         4.1079200009       11.8456450130        4.6851592671
  C         2.0884910367       13.5140941556        9.7481499871
  H         1.9851168083        9.7405582869        9.5737747410
  C         1.6724729547       11.5058680447       10.8071392528
  H         0.5985653230       11.9846743636        5.9716470730
  H        -0.0345257144       11.1552292620        7.4188886716
  C        -0.6938480969       10.4330355891        5.3806884048
  C         4.0420997812       14.7090800262        4.0042316848
  C         1.6962613988       12.8732752019       10.8812831629
  H         1.9749245323       14.5657740659        9.7087895510
  C         1.2517297423       11.1466758269       12.0824328480
  H        -1.6223872105       10.9367852169        5.6064072904
  H        -0.8226736963        9.3398567735        5.5984688955
  C        -0.4412951469       10.7927086487        3.8896644039
  C         4.1865821962       16.0842522928        3.8987221927
  C         4.3779213640       13.9351262014        2.7522120204
  C         1.4031105133       13.5581975200       12.1741055965
  C         1.0098701018       12.2853882961       12.8756487665
  S         0.9855366012        9.6261188735       12.8743794625
  H         0.4885754623       11.2341297502        3.7175966111
  H        -1.2507815330       11.4542929969        3.5505304695
  C        -0.4395502155        9.5853913753        2.9380129548
  N         4.0700223546       17.0339791823        4.8996547742
  C         4.4954325586       16.6855347926        2.6881931024
  C         4.7680599649       14.4974769504        1.5797023201
  H         4.2639444502       12.8738476740        2.8386434414
  C         0.1068525434       14.4715508904       12.0060063467
  C         2.5673947556       14.2805995015       12.8202950223
  C         0.6219747524       11.8584057377       14.1277934566
  C         0.5264708234       10.4834683517       14.2569576176
  H         0.3221412883        8.8413697870        3.2485860450
  H        -1.4007708642        9.1946152387        2.9595860018
  C        -0.0599357031       10.1112749488        1.5071993660
  S         4.1477411772       18.5504200559        4.2950821861
  N         4.4060760651       18.0983258999        2.7204663420
  C         4.7732175100       16.0058461255        1.5020779729
  H         4.9026770750       13.7933337044        0.7710519100
  H         0.4763501225       15.2633075990       11.4426735967
  H        -0.2416764794       14.7946412964       13.0090187541
  C        -1.1738858999       13.8196438517       11.3616172737
  H         2.9345399018       15.2286910371       12.3769053758
  H         2.3515526909       14.6336968946       13.8416800905
  C         3.8896594369       13.5800779437       12.7570269611
  H         0.4374193354       12.6049855252       14.8884917675
  C         0.1511091846        9.8067003876       15.5863190275
  H         0.6429749375        9.5345553216        1.0660003380
  H         0.2586803452       11.1324412607        1.5064383176
  C        -1.2199880678       10.2254276173        0.5087697877
  C         4.9811736351       16.7377752604        0.3026154971
  H        -0.9912844977       13.2955653857       10.4475588281
  H        -1.6128166979       13.1165585923       12.0230780344
  C        -2.1450379647       14.8750734161       10.8845438637
  H         4.1836957603       13.4807608565       11.6997700741
  H         3.7390011849       12.5640190534       13.0900116527
  C         5.0061886508       14.2667484449       13.4889965899
  C         0.1814041105        8.3873525745       15.8063695780
  C        -0.0477063936       10.5903919128       16.8533101765
  H        -1.6401597691        9.2665868578        0.4493705252
  H        -1.9091543439       10.8406778366        0.9868697852
  C        -0.6805404084       10.8047210676       -0.7895993026
  H         4.8883191658       17.8206292449        0.2310412135
  C         5.2813331480       16.2946859805       -0.9477169465
  H        -1.7079641297       15.5917400294       10.2121553856
  H        -2.5320245742       15.3508173905       11.7805222558
  C        -3.3879574662       14.2530278384       10.1915580251
  H         5.3956328701       14.9497066813       12.7787306130
  H         4.6467648614       14.6780797894       14.4038558421
  C         6.1047026399       13.2431231605       13.8640325081
  N         0.3217634713        7.4469371819       14.7676893954
  C        -0.1760504104        7.7818005938       16.9854624374
  C        -0.2717678154        9.9564730853       18.1073196932
  H         0.0862349163       11.6520829181       16.8962634636
  H        -0.1064614808       11.7158253127       -0.6905172786
  H        -1.5921274458       10.9670332058       -1.3859595049
  H        -0.1833142833       10.0620484018       -1.2772756980
  S         5.5946778439       14.6822964304       -1.5168062902
  C         5.4143440152       17.3566091178       -2.0075578947
  H        -3.8710722026       15.0150912186        9.5183019773
  H        -3.0998418800       13.4024720696        9.5232546962
  C        -4.5253674861       13.8062190587       11.1817857197
  H         6.4330967130       12.7353330329       12.9532686329
  H         5.5480465842       12.4087414912       14.3408758281
  C         7.1715861521       13.7580348390       14.8240475915
  S        -0.0319889861        6.0293542966       15.3692316166
  N        -0.3064663020        6.4383050385       16.8652615016
  C        -0.4705113793        8.4733190878       18.1629736275
  H        -0.3118723810       10.4488667126       19.0975943068
  C         5.8343878413       15.4214423282       -3.0901491141
  N         5.8280816087       16.7706327401       -3.1373718115
  O         5.3569029904       18.5685405465       -1.7927804295
  H        -4.0641368349       13.0120315128       11.7906850316
  H        -4.8519257576       14.7007651998       11.7523157694
  C        -5.7527694757       13.3676650656       10.3720369550
  H         6.6726591115       14.0594827788       15.7242582569
  H         7.8206594625       12.9565024930       15.0343005189
  C         7.9824827461       14.9424351308       14.2275003950
  C        -0.6393238155        7.6654506049       19.3145933590
  S         6.1217807443       14.4981327001       -4.6025464752
  C         5.8830372781       17.5605491002       -4.3755230768
  H        -5.4228718031       12.9990303790        9.4212119244
  H        -6.1937274432       12.5269588387       10.9306694594
  C        -6.8893356029       14.3919028122       10.1909058567
  H         7.6413780209       15.1578599113       13.2425940664
  H         9.0326318365       14.7312117629       14.1259708992
  C         8.0335958171       16.1535111465       15.1568970531
  H        -0.2089219552        6.7035849482       19.1831210555
  C        -1.2601386663        7.9186319189       20.5784812197
  H         6.6257398653       17.2271789714       -5.0318667607
  H         6.1924821270       18.5533371760       -4.0331638010
  C         4.4534248921       17.6965429308       -5.0225108211
  H        -6.4364930272       15.2757476868       10.0331655162
  H        -7.4973856032       14.5798152257       11.0624611203
  C        -7.8309657636       13.9860993960        9.0416987049
  H         7.1458257608       16.1012867336       15.7660774520
  H         8.8339293325       16.0096114015       15.8548493379
  C         8.1366303309       17.4987072249       14.4639688015
  S        -2.0473528045        9.3814967462       21.1587406731
  C        -1.2291676800        6.8613388564       21.6584108258
  H         4.1120485686       16.6804350956       -5.4285407090
  H         4.4437597119       18.4697662093       -5.7558267754
  H         3.7224765711       18.0163922349       -4.2775544931
  H        -8.0491442603       12.9781146410        8.9966949981
  H        -8.7614288864       14.5661771923        9.0711160044
  H        -7.3790512456       14.1934171865        8.0592679742
  H         8.8399453027       17.4484165272       13.6494212296
  H         7.1019155526       17.8564942470       14.0709048490
  H         8.5413959863       18.2603083202       15.1167016975
  C        -2.3035520660        8.5553431033       22.6612812343
  N        -1.9444980988        7.2631633667       22.6559013192
  O        -0.7301854590        5.7285705002       21.5628551691
  S        -3.2899714313        9.0719473743       24.0362818693
  C        -2.0240409830        6.3366132742       23.7960819521
  H        -2.1063928944        5.2944203888       23.4491836484
  H        -2.9622132786        6.4337123661       24.3654473450
  C        -0.7410787656        6.5075468658       24.7093619359
  H         0.0743559611        5.8313900080       24.4795346115
  H        -1.1152157867        6.3085283308       25.6885325674
  H        -0.3705811059        7.4648637454       24.6824446879
