352
i =
  H        -3.4902725536       13.9604938677       15.9555661958
  C        -3.2244794049       12.9451995135       16.0302753436
  H        -4.0965149437       12.3883883420       16.3103729376
  C        -2.2310048205       12.6712729905       17.2464919844
  C        -2.7123598892       12.6525857238       14.6002304096
  C        -2.8892645653       12.9169294069       18.6416868695
  H        -2.1399138679       11.5813159895       17.3011539284
  H        -1.2871981735       13.1467448443       17.1523721070
  H        -3.5329541839       12.3585647728       13.9093116276
  H        -2.0924812681       13.4320500169       14.1527703685
  H        -2.0186204883       11.8279613005       14.6848764265
  C        -1.8179615129       12.9320751334       19.6898282702
  H        -3.6506087610       12.2170468003       18.9816816942
  H        -3.1999553380       13.9524232108       18.5757651928
  C        -2.4714281947       13.2154041284       21.0973972508
  H        -1.3880737937       11.8702061600       19.7978703404
  H        -0.9715184407       13.5912851535       19.5154544633
  C        -1.6988673396       12.7676483867       22.3596338284
  H        -3.3897698225       12.7052146096       21.0804404098
  H        -2.5889249910       14.2934448336       21.1339671525
  C        -0.3815120056       13.5570867189       22.6434276145
  H        -2.2926627796       12.9117025901       23.2760391309
  H        -1.4953724909       11.6900293165       22.1260226257
  C         0.8741542511       12.8405811310       23.1649056924
  H        -0.1451828923       14.1429063933       21.7799962214
  H        -0.5331450406       14.2631825056       23.4875495275
  C         1.1696342773       11.5278828325       22.4310822004
  C         0.4488568877       12.0578811599       24.4211841895
  C         2.1038770477       13.7506866524       23.1026279976
  C         0.9270436860       10.3989208424       23.1847764565
  C         1.7605858559       11.2127993329       21.2235019347
  C         0.3619536255       10.7067333302       24.4399879637
  C        -0.0555414058       12.6812322350       25.5375754290
  H         2.3096037074       14.0829313260       22.1367201418
  H         1.8337541516       14.6790464087       23.5526180384
  C         3.3662661395       13.0387130101       23.6353596207
  S         1.4377831049        8.9120364940       22.4908244120
  C         1.9865197172        9.8895524991       21.1189316006
  H         2.0786345388       11.9145371164       20.5081399192
  C        -0.0414942877       10.0004467141       25.5800615416
  H        -0.0949304113       13.7615644457       25.4388842280
  C        -0.4764903476       12.0277124552       26.6821158907
  H         3.6226437798       12.1096141058       23.2187199984
  H         3.1628800757       12.8959713465       24.6641510527
  C         4.5027231552       14.0529534783       23.5520483769
  C         2.3416958465        9.2331148645       19.8465992401
  C        -0.3853638276       10.6768040605       26.7033810578
  H        -0.0901835147        8.9691639099       25.5515642358
  C        -0.8624966029       12.3595576228       27.9860147266
  H         5.3950871953       13.6011425924       23.9693180176
  H         4.4111100600       14.9992885626       24.0993679287
  C         5.0924472585       14.4245027625       22.1738949875
  C         2.4252194971        7.8102328487       19.6506229434
  C         2.4483310563       10.0493351648       18.6186935608
  C        -0.8560924440        9.9770241684       27.9529432841
  C        -1.0425011978       11.2590065248       28.7617298466
  S        -1.1139813212       13.8221725358       28.8351783905
  H         5.7496076795       15.2705204009       22.2444327833
  H         4.3846142096       14.6452977089       21.3461178852
  C         5.9647506717       13.3193216393       21.7523495709
  N         2.1135083536        6.8194858039       20.5677312012
  C         2.6710302269        7.2402711056       18.4061283390
  C         2.7497224061        9.4475575312       17.3836456362
  H         2.3395451542       11.1032511542       18.5578444288
  C         0.2742610519        9.1348653077       28.6270770039
  C        -2.1269991623        9.2160202350       27.6422438264
  C        -1.4248793335       11.6120177856       30.0827658743
  C        -1.4603686699       12.9778015807       30.2777466060
  H         7.0313087559       13.5824171090       21.6742973558
  H         5.8316112290       12.4866924265       22.3897940678
  C         5.4753090023       12.6355521521       20.5304435494
  S         2.1291599881        5.3582413525       19.8572968155
  N         2.5253207279        5.8700760300       18.3985773892
  C         2.9665135386        7.9642481015       17.2531442724
  H         2.8427712315       10.0667608949       16.5504632858
  H         0.5168203517        8.4144324482       27.9232950740
  H        -0.1510257538        8.5933840470       29.4238678145
  C         1.5041266269        9.9636628760       29.0951575471
  H        -1.8157628034        8.4321325745       26.9700640791
  H        -2.3882435747        8.9338787940       28.6794943516
  C        -3.2752974997       10.0431957309       27.0094865032
  H        -1.7519889977       10.8621766799       30.7877283735
  C        -1.8007632057       13.6828276895       31.5928858258
  H         4.4454816140       12.4906050055       20.5368889285
  H         5.9031519755       11.5900244597       20.7388696332
  C         6.0374860012       13.1312040216       19.2591244928
  C         3.2576602504        7.2609751423       16.0527518587
  H         1.9766868875       10.5587173786       28.3129578492
  H         1.2584061684       10.6454473759       29.8984482717
  C         2.6686392322        9.0145607617       29.5526084917
  H        -2.9823334581       10.4419678130       26.0797191587
  H        -3.5622829483       10.8990878346       27.6353942839
  C        -4.5093275652        9.1743227196       26.9517467116
  C        -1.8825387966       15.0954265285       31.7921866567
  C        -1.9307323533       12.8546699245       32.8550488045
  H         5.5689267984       12.6171667430       18.4523471680
  H         5.8280290995       14.1405458484       19.0125415360
  C         7.5184261631       12.9206843928       19.0206430929
  H         3.2192135794        6.2280224435       16.0559451652
  C         3.5829839227        7.7259798570       14.7787859276
  H         3.2303671558        8.7514852340       28.6905735430
  H         2.2847146915        8.1008670144       29.8949973782
  C         3.5419567943        9.6253407771       30.6443341255
  H        -4.5820858825        8.5938122854       26.0470613512
  H        -4.5097873188        8.3965426230       27.7182376678
  C        -5.7449184382       10.1220463264       27.0347717573
  N        -1.6026053771       16.0807559940       30.8852743693
  C        -2.1820513413       15.6164576649       33.0261127469
  C        -2.1039669887       13.4402675194       34.1059794379
  H        -1.6647483241       11.8429023480       32.7394776903
  H         7.8682938388       11.9426878336       19.4400301768
  H         7.6710266443       12.8086459946       17.9527997189
  H         8.0681789191       13.8442330635       19.3437878868
  S         3.8704660489        9.3105313521       14.3084769265
  C         3.7541737788        6.6736134576       13.7023995888
  H         3.5800260881       10.6663898532       30.6167072179
  H         3.0884661720        9.3724655415       31.6503124829
  C         4.9712848221        9.0772841920       30.4439210345
  H        -5.5498239271       10.9516806553       26.3981150386
  H        -5.8317021584       10.5730803522       28.0455832967
  C        -7.0547747400        9.5383170836       26.6448593469
  S        -1.6559441767       17.5325825657       31.5728112967
  N        -2.1798744710       17.0510582814       33.0495688785
  C        -2.2914949229       14.9026443789       34.2076001689
  H        -2.1891017107       12.8155571049       34.9805859967
  C         4.1348974716        8.5569956043       12.6556781147
  N         4.0548543480        7.2415451065       12.5342788172
  O         3.5178387180        5.5046145510       13.8518595107
  H         5.7012183642        9.6528036731       30.8892124400
  H         5.1860453803        8.8943849860       29.3493304139
  C         5.2076596568        7.7243062786       31.1735428369
  H        -6.8796858623        8.5609257025       26.8862336597
  H        -7.8479506561       10.0396642665       27.2048542562
  C        -7.2874521790        9.6167051499       25.0973760742
  C        -2.6284524446       15.4647154491       35.4833736899
  S         4.5719198627        9.5776135268       11.1969812731
  C         3.9821455463        6.4278588951       11.3041204538
  H         5.9420196388        7.8522362490       31.9693909345
  H         4.3562025853        7.4009685793       31.6681745869
  C         5.8402504311        6.5426703538       30.3215028888
  H        -6.4868571206        9.0419915893       24.5083576204
  H        -7.0748520864       10.6472273996       24.8870020094
  C        -8.6895831906        9.3381052988       24.5772100605
  H        -2.3221830407       16.5036971414       35.5819280350
  C        -3.3314160988       14.9969836233       36.5935554870
  H         4.4932375346        6.9666123088       10.4673770457
  H         4.4976127054        5.5050565977       11.3843615785
  C         2.5210848292        6.2362032962       10.8633264891
  H         6.5207948706        7.0167279931       29.5488093351
  H         5.2817949883        5.7707016476       29.8255672745
  C         6.7636159667        5.7918716040       31.2267396684
  H        -8.8818730867        9.9813493227       23.7250985464
  H        -8.5402630791        8.3154366376       24.3157550449
  C        -9.7853864813        9.6219293253       25.6084624768
  S        -4.0215917700       13.4168502108       36.7946131839
  C        -3.5519991105       15.9176746307       37.6872286345
  H         2.3413229904        5.3861423263       10.2549666719
  H         1.8392496548        6.1096535969       11.7359948913
  H         2.2017638753        7.0585249558       10.2517503876
  H         7.6696092169        6.4159664288       31.4274719277
  H         7.0042519723        4.8267819629       30.8012823391
  H         6.3028909510        5.6675120530       32.1712556851
  H       -10.7493967412        9.5589355969       25.1687398427
  H        -9.6501559466       10.6467310599       25.9417491902
  H        -9.7581519975        9.0494729662       26.4506873552
  C        -4.7994880141       14.0397569095       38.2355777163
  N        -4.3509801588       15.2639833153       38.5646256165
  O        -2.9270124769       17.0250377464       37.8359253408
  S        -5.6558172808       13.0637769471       39.4670100252
  C        -4.4930912372       15.7950716249       39.8959740622
  H        -4.5634388944       16.8230632903       39.7953310442
  H        -5.4381499483       15.6260022471       40.3801521148
  C        -3.3514295702       15.4889993596       40.7768087458
  H        -3.4839740801       14.4963553908       41.3048486314
  H        -2.4080821992       15.4514929760       40.2056929986
  H        -3.2873657306       16.2180628251       41.6264948798
  H         7.0988446570       10.8687942443        3.0327333972
  C         8.0289115578       10.3166145477        3.1351979649
  H         7.7965431461        9.2231100824        3.1559320647
  C         8.7784485129       10.6404342336        4.4250504705
  C         8.8472171384       10.7092008550        1.9622288925
  C         7.7873505356       10.7130022929        5.6152022483
  H         9.5573304670        9.8962416175        4.6269896269
  H         9.1623676054       11.6265488281        4.2683463914
  H         9.8054784143       10.9593031755        2.3455831696
  H         8.4243805441       11.5328079034        1.3018222469
  H         8.8301923307        9.8561305766        1.3177924058
  C         7.5406673880        9.2821356629        6.1904625872
  H         8.1992706221       11.3906517233        6.3787677014
  H         6.8093103372       11.1399770925        5.2290730675
  C         6.8421333404        9.4066917337        7.5635270810
  H         8.4468552848        8.7154699700        6.4157307420
  H         6.8596035843        8.7293167357        5.5030475032
  C         5.5590446360       10.2204394941        7.6924469894
  H         7.6248490714        9.7572928518        8.2946580415
  H         6.5968411849        8.4358760411        7.9934381278
  C         4.2897366446        9.4721583943        7.2555240289
  H         5.4816223132       10.6499770974        8.7039482730
  H         5.7156318003       11.0702862153        7.0273178643
  C         2.9835778511       10.3099536376        6.9219193862
  H         4.1312121506        9.0383871031        8.1952874191
  H         4.4487075541        8.6617822612        6.5057155071
  C         3.3647693504       11.6456911783        6.2129219511
  C         2.4718792205       11.0855798608        8.0671462681
  C         1.9081162178        9.5274742012        6.0143752163
  C         2.8882655087       12.7679211833        6.8653033849
  C         4.0610835857       11.9452760196        5.0633506798
  C         2.4261509800       12.4342102674        8.1396995978
  C         1.9591910138       10.4850497013        9.2246628868
  H         2.5364125068        9.0004306017        5.3111199182
  H         1.3767479272        8.7210915042        6.5423018220
  C         0.9081956803       10.3590396014        5.2344593747
  S         3.1748249593       14.2485553184        6.0720736819
  C         3.9096827515       13.2947774083        4.8106180258
  H         4.5054335597       11.1473817593        4.4713752510
  C         1.9732842588       13.0787378166        9.2624909718
  H         1.9665675962        9.4121404738        9.2644508537
  C         1.4897899652       11.1251942042       10.3482530373
  H         1.5052790508       10.9028168645        4.5195358181
  H         0.3415118413       11.0644952799        5.9038042031
  C        -0.2261449691        9.5164466671        4.5730851303
  C         4.4136770174       13.9141947034        3.5090234427
  C         1.5316533131       12.4823859497       10.4363827643
  H         2.2178878954       14.0790683349        9.2886899394
  C         1.0106280170       10.6643370441       11.5937129872
  H        -0.8088319603        9.1240591481        5.3864690920
  H         0.2815399778        8.7681449372        3.9691410804
  C        -1.0735995646       10.2871355674        3.6286923255
  C         4.2830499670       15.3033701461        3.2262402918
  C         4.6686429961       13.0630126845        2.3282070411
  C         1.1116423670       13.0932588372       11.7192556682
  C         0.7907474154       11.7409728955       12.4508951795
  S         0.7140176829        9.1634311909       12.3213684985
  H        -0.5190323386       11.0607054760        3.0324934230
  H        -1.7920974427       10.8801117445        4.2266454946
  C        -1.9204918356        9.3626862548        2.7375741873
  N         3.9950680768       16.2689693968        4.2105870941
  C         4.4536227992       15.8451958211        1.9785486094
  C         4.9574529638       13.6590172657        1.0917557687
  H         4.5766522214       11.9766528546        2.4158695340
  C        -0.1100385135       13.9803276985       11.5307980311
  C         2.2849676916       13.7914060492       12.4990654851
  C         0.3653180602       11.3493206881       13.7181891937
  C         0.3387331685        9.9654699683       13.7968230732
  H        -2.2343448584        8.5369489249        3.2854496879
  H        -2.7967791734        9.8957863377        2.3686999209
  C        -1.1825783141        8.8981022661        1.5366551963
  S         3.8632102818       17.7208281343        3.4879363321
  N         4.2144570449       17.2314673354        1.9911282008
  C         4.8654318100       15.1220672228        0.8641261278
  H         5.1873107534       13.0025766719        0.2584599160
  H         0.1152641824       14.8286005235       10.9007026309
  H        -0.4526872629       14.4741936492       12.4926614689
  C        -1.3773301351       13.1887583551       10.9903022708
  H         2.6690702217       14.6751946538       12.0566586023
  H         1.7834267830       14.1483135958       13.4041359726
  C         3.3976724841       12.8425359724       12.8231880428
  H         0.1125938428       12.1913180826       14.3816926246
  C         0.0990456887        9.2008169337       15.0828913072
  H        -1.8261819974        8.1175205096        1.2298190748
  H        -0.2245398128        8.4441590179        1.6942312503
  C        -1.0129992685       10.0374826359        0.4243745233
  C         5.1462302695       15.7847103952       -0.3520007496
  H        -1.2961860958       13.0533043131        9.9088487490
  H        -1.3849716996       12.1115582010       11.2706133194
  C        -2.6941547168       13.8675983778       11.2171032815
  H         3.5310480842       12.0462716189       12.0022038248
  H         3.1369146555       12.1940235593       13.7103773994
  C         4.7279348163       13.4790650660       13.1606243823
  C        -0.0092343187        7.8196652066       15.2933121603
  C        -0.2686461533       10.0250565016       16.2923733651
  H        -1.9102250160       10.5710554424        0.2898049960
  H        -0.3673204984       10.8623055697        0.6929136135
  C        -0.5198981166        9.5803452755       -0.9529795837
  H         5.1552089469       16.8538277961       -0.2528839260
  C         5.4583844252       15.3824504173       -1.6290943219
  H        -2.6489389880       14.6397197791       10.4502876825
  H        -2.7783221208       14.3217645708       12.2658090896
  C        -3.9509498976       13.1044988138       10.8638198298
  H         5.5123967801       12.6694547626       12.9950352774
  H         4.9146358470       14.3350481801       12.4598440908
  C         5.0111103242       14.0010192588       14.5407033750
  N         0.3270740723        6.8861043445       14.2877131111
  C        -0.3203841327        7.1720897248       16.4841126345
  C        -0.5719225473        9.3919044129       17.5431833832
  H        -0.1123212568       11.1101436037       16.2368934492
  H         0.1371865434       10.3087253083       -1.4665301811
  H        -1.2961902422        9.3930371316       -1.6730919154
  H        -0.0951066643        8.5971509628       -0.8237910184
  S         5.7578714058       13.7669495930       -2.0876001751
  C         5.6080110735       16.4040066356       -2.6321430208
  H        -3.5176392420       12.2413973230       10.3320934152
  H        -4.6800917523       12.8735986494       11.7291247368
  C        -4.9232437521       13.7303555822        9.7859398866
  H         4.9049896239       13.4124240926       15.4626012187
  H         4.4337380032       14.8792218624       14.6811436105
  C         6.5439633745       14.2832915118       14.6429114853
  S         0.1511819121        5.3424582909       14.9194082170
  N        -0.2725288843        5.8113730677       16.3937950759
  C        -0.5561103745        7.9002354151       17.6948947811
  H        -0.7803002263       10.0935017670       18.3623409231
  C         6.0786098834       14.4337361005       -3.6889111926
  N         5.9415734705       15.8068463816       -3.7718325191
  O         5.2437349020       17.5476344218       -2.3744022897
  H        -5.3502360702       14.6929113765       10.1917276135
  H        -4.2288816845       14.1155470140        8.9932967610
  C        -5.9333400961       12.7620194021        9.2538243681
  H         7.1015960860       13.4386192630       14.9631294801
  H         6.8727879678       14.5449781699       13.5857830801
  C         6.8474838069       15.3334420742       15.6788015316
  C        -0.8094741058        7.1220913568       18.8777996064
  S         6.6628981858       13.5928551423       -5.1214078051
  C         6.0041734093       16.6495908358       -4.9994720013
  H        -5.4778464342       12.4750832699        8.2791678748
  H        -6.0236616605       11.9826648683        9.9300477002
  C        -7.3403532371       13.4108829775        9.1389734616
  H         7.3324612166       14.9650630141       16.5473029921
  H         5.9297034370       15.7539193736       16.0786466416
  C         7.8277964878       16.4713561933       15.3189674240
  H        -0.4543766352        6.0966969405       18.8609549130
  C        -1.4443717934        7.3334480656       20.0643312868
  H         6.7253760485       16.3066385243       -5.7229906709
  H         6.4447381213       17.5324646080       -4.7300379074
  C         4.6351771508       16.6979139287       -5.6921564775
  H        -7.9987094006       12.7974912194        8.4555907472
  H        -7.3186299426       14.4182048178        8.6714315286
  C        -7.9091714035       13.5616804931       10.5905413036
  H         7.3501789899       17.3481373012       15.7405384919
  H         8.7880353918       16.4032143342       15.7984480287
  C         8.0835834847       16.8817403237       13.8835499117
  S        -2.1802563866        8.8134763131       20.4873197455
  C        -1.5746560052        6.1701693139       21.0268668501
  H         4.1028873908       17.5001259045       -5.1289307794
  H         4.1386170646       15.7122824242       -5.5687825519
  H         4.8346171101       17.0349881563       -6.6579522460
  H        -8.9555873872       13.6266386034       10.5855077475
  H        -7.6937606742       12.7235808218       11.1959365856
  H        -7.3404083623       14.3165280639       11.0897542579
  H         7.1999566974       17.2374855249       13.4115368796
  H         8.7155052419       17.7044006731       13.8080137227
  H         8.5977652155       16.0104455364       13.4349076344
  C        -2.5959755684        7.9384911770       22.0056368852
  N        -2.2128169274        6.6570372529       22.1114540949
  O        -1.1514860286        5.0069960079       20.8408748070
  S        -3.3478982750        8.6723299843       23.3645865600
  C        -2.5091591172        5.7478879070       23.1939821617
  H        -2.7472457687        4.8196126032       22.8071112248
  H        -3.4590608074        5.9438899333       23.6284576686
  C        -1.3767900350        5.6612390859       24.1530818116
  H        -0.5004820718        5.5405446506       23.5297477649
  H        -1.2523068400        4.7105849990       24.7194957375
  H        -1.2220523353        6.5447770478       24.7663904263
