352
i =
  H        -3.4409511226       14.3481765464       16.2736748841
  C        -3.3108015348       13.3323815794       16.2449155651
  H        -4.2875111628       12.8291390328       16.3544719719
  C        -2.3434990784       12.8822558567       17.3633061364
  C        -2.7084365890       13.1173628288       14.8752111771
  C        -3.0311214683       12.8934707906       18.7868877618
  H        -2.0561563564       11.8979751061       17.1122901850
  H        -1.4689546998       13.4680051994       17.4849303410
  H        -1.7922920946       13.7165802083       14.8232869222
  H        -2.3696111441       12.0496638690       14.7574853921
  H        -3.3574021274       13.3404016732       14.0142184441
  C        -1.8775610632       13.0747108977       19.7833962821
  H        -3.5414170393       12.0085890395       19.0617899417
  H        -3.6507005286       13.7575279165       18.7317956349
  C        -2.3197357376       13.1650067952       21.2406191463
  H        -1.2200173478       12.2396509012       19.5437487675
  H        -1.4390137930       14.0444853894       19.6214357616
  C        -1.2734627139       12.5909004813       22.1839423621
  H        -3.1957179160       12.4492429674       21.4084258225
  H        -2.6656957831       14.1718273946       21.4511695358
  C        -0.1587407881       13.5509027479       22.4925321329
  H        -1.6820115349       12.2939596753       23.1749591452
  H        -0.8606536350       11.7198056354       21.6569609303
  C         1.0513160441       13.0573728130       23.2831155818
  H         0.2538365187       14.0734587553       21.6116517430
  H        -0.6431661152       14.3215486353       23.1082117970
  C         1.3328820219       11.6796235911       22.6431491922
  C         0.7204868750       12.3620848701       24.5791433389
  C         2.2276650917       14.0008725750       23.3606317988
  C         1.1900168370       10.5842040669       23.4341368538
  C         1.7265742877       11.2946907577       21.3316526185
  C         0.7934095373       10.9811015924       24.6497714350
  C         0.3498673063       12.9958892026       25.8180208395
  H         2.4081546694       14.4439735232       22.3099617632
  H         1.8537033472       14.8194028511       23.8772451970
  C         3.6047763444       13.4485210926       23.8370456101
  S         1.5701513107        9.0731102778       22.6530284062
  C         1.8514746671        9.9153559498       21.2206007383
  H         1.8111944104       12.0847010529       20.5824784598
  C         0.4742909553       10.3430640145       25.8219655323
  H         0.4140749554       14.0483319926       25.8992281350
  C        -0.0275713296       12.3013937472       26.9580928666
  H         3.9271842703       12.6797361457       23.1228860400
  H         3.6104798730       12.8638132248       24.7786479959
  C         4.9301439459       14.3573904430       23.9040977559
  C         2.2199202502        9.2241332699       19.9140770009
  C        -0.0418173477       10.9217512621       26.9956403206
  H         0.5480506973        9.2027349339       25.8658174077
  C        -0.3685781257       12.6949734170       28.2229635445
  H         5.6351474923       13.9429766023       24.6575035121
  H         4.6311901318       15.2644847313       24.4341094920
  C         5.4996086020       14.7180450572       22.5225870017
  C         2.2437633520        7.8304309415       19.6682799450
  C         2.7918328990       10.0377553978       18.7934403138
  C        -0.4634262234       10.2210301100       28.2126311417
  C        -0.7177225182       11.5409899647       28.9437703585
  S        -0.7889930974       14.1666893386       28.9554108495
  H         6.1274511721       15.6371514474       22.4985164609
  H         4.7687322901       14.9723641950       21.7553717848
  C         6.4150013789       13.6837909326       21.8785912725
  N         1.6624614167        6.8838668993       20.5343761641
  C         2.5311123288        7.2244491473       18.4740797563
  C         3.0631208736        9.4636164949       17.5549532276
  H         2.9567722752       11.0688499134       18.9897344821
  C         0.7085701872        9.3907257671       28.8023863444
  C        -1.6596931197        9.4023330558       27.8141618433
  C        -1.3386886159       11.8965835620       30.1075104100
  C        -1.3081834879       13.2647775974       30.2858548462
  H         7.1839564106       14.2321321357       21.3308966042
  H         6.9106032105       13.2133587845       22.7122643322
  C         5.6423741615       12.7729876500       20.9764718180
  S         1.9423457390        5.3548583484       19.9288454126
  N         2.4357943568        5.8458951161       18.4908922123
  C         2.8417351695        7.9969845071       17.2965123436
  H         3.5880176542       10.0804325013       16.7556328808
  H         0.9947147111        8.5835109262       28.0751867433
  H         0.3618144206        8.8532153038       29.6827994255
  C         1.9024402923       10.2094433728       29.3893832949
  H        -1.4241184515        8.5269090673       27.2087662846
  H        -2.0828324403        9.0746701905       28.7890998194
  C        -2.7563421229       10.1150780177       27.0679074624
  H        -1.7752911204       11.1370231468       30.7205997355
  C        -1.5959958038       13.8853228027       31.6614538553
  H         4.6296362603       12.6333364928       21.2724227095
  H         6.1153378678       11.8735714585       21.0501134148
  C         5.6194401242       13.2613680406       19.5212178814
  C         3.1438767437        7.2690683979       16.1319168783
  H         2.3423111088       10.7839767564       28.6022006799
  H         1.5663275471       11.0185410883       30.1260673960
  C         2.9078896297        9.3673974468       30.2114080283
  H        -2.3983033826       10.5358287847       26.1366676615
  H        -3.1360119617       10.9829451187       27.5880275823
  C        -3.9507632865        9.1826246741       26.8832727534
  C        -1.7269994468       15.2860630534       31.8573004518
  C        -1.5840345909       13.0502999273       32.8441261428
  H         5.0378669029       12.5806452910       18.9009134678
  H         5.0414879224       14.1807137007       19.5622941184
  C         6.9256965244       13.2745037528       18.7233226045
  H         3.1471312965        6.2239685605       16.2581748711
  C         3.4007733827        7.6186535631       14.8349656068
  H         2.9232183839        8.3078953259       29.9109114804
  H         2.5795851412        9.1145186880       31.2563218701
  C         4.3878609269        9.8990375176       30.1234716844
  H        -3.8842241542        8.4792653621       26.0598726660
  H        -4.1303706629        8.5239467408       27.7663961431
  C        -5.1470126686       10.0856480592       26.5655285893
  N        -1.6097980981       16.2422179393       30.8047186615
  C        -2.0476512304       15.8583685005       33.0421347257
  C        -1.9913659835       13.5745364485       34.0753189927
  H        -1.3569677476       12.0064036791       32.7973243634
  H         7.0006100690       13.8094527447       17.7847477571
  H         7.7490527414       13.7268512347       19.2536443090
  H         6.9542769510       12.2672802069       18.4564686458
  S         3.5523617999        9.1882488474       14.1443014307
  C         3.5579733336        6.4882138830       13.8485240823
  H         4.5759314348       10.7106354078       29.4078297379
  H         4.6636609813       10.2729096870       31.0946711453
  C         5.3722938619        8.7852469252       29.8196426380
  H        -4.7750546094       11.1147162997       26.3244009526
  H        -5.7803573511       10.2014561408       27.4548628853
  C        -5.9988078746        9.4849311410       25.5397006796
  S        -1.7547934766       17.7092100013       31.4732059516
  N        -2.1700446400       17.3010797202       32.9849068557
  C        -2.2135268090       15.0319008077       34.1767955331
  H        -2.0484114725       12.9312111800       34.9744863400
  C         3.7811257669        8.3544374374       12.5962477254
  N         3.7451249532        6.9880966936       12.6391836456
  O         3.4084083976        5.2647295392       14.0586206400
  H         6.3781220188        9.1820065380       29.5938989082
  H         5.1241083882        8.3059120754       29.0144026218
  C         5.5650771259        7.8116129066       30.9317650719
  H        -5.3880855530        9.2823802471       24.6106583965
  H        -6.2077592527        8.4545451081       25.9036898304
  C        -7.2908473868       10.2716520369       25.2903014995
  C        -2.6381045052       15.6536899215       35.4113269268
  S         4.1811627850        9.2650058270       11.1261176037
  C         3.9655625421        6.1841851516       11.4452108735
  H         5.8138269890        8.4136120141       31.8017044137
  H         4.6149871252        7.4332858464       31.3464585301
  C         6.5387954102        6.7161932649       30.5725953234
  H        -7.3041078300       10.7198499405       24.3460860934
  H        -7.4316878973       11.0726374024       25.9577484376
  C        -8.5415565870        9.3839418025       25.4816335783
  H        -2.6217047634       16.7621885116       35.3493562957
  C        -3.2138001186       15.2083754907       36.5576165059
  H         4.7985282088        6.5609636140       10.8436870453
  H         4.1855583875        5.1638676065       11.7644425482
  C         2.6467642914        6.1642727951       10.6144458831
  H         7.5289070678        7.0778380978       30.7102600484
  H         6.4923045533        6.3415945263       29.5359390770
  C         6.2199602289        5.5260633533       31.5572868883
  H        -9.0721494837        9.3567730366       24.5271045426
  H        -8.2910647615        8.3622399291       25.7884309915
  C        -9.3534719794        9.7730490555       26.6495942047
  S        -3.8567051702       13.6758217950       36.8035489301
  C        -3.3416868612       16.1596975659       37.6677743173
  H         2.8757549654        6.1360629356        9.5293330250
  H         2.1926342745        5.2083880580       10.7430758173
  H         1.9843455984        7.0306077073       10.8784961230
  H         6.6625872511        4.5723877859       31.2757359947
  H         5.1213257565        5.3853154926       31.6060612664
  H         6.5042421914        5.8875763044       32.5760010069
  H        -9.8819736420        8.8754753209       27.0931034702
  H       -10.1757607312       10.4983924196       26.4170487818
  H        -8.7435793637       10.1995487431       27.4514637905
  C        -4.2714152543       14.2405483752       38.4756020078
  N        -4.0306610047       15.5863158704       38.6665495564
  O        -2.9116173125       17.3041013298       37.6022536726
  S        -5.2058619009       13.3664893695       39.6893897146
  C        -4.2365861291       16.2679817820       39.9248728764
  H        -4.3191982843       17.3594491639       39.7968587421
  H        -5.1043080122       15.9015672946       40.5330074723
  C        -3.0575797294       16.0182997665       40.8352183313
  H        -3.1549198311       14.9718045096       41.2388064329
  H        -2.1472411440       16.1617832125       40.2828430443
  H        -3.1884598331       16.6533857723       41.6823206494
  H         7.5131746658       10.8657235480        3.6324289329
  C         8.1143079642       10.0148035119        3.7794158501
  H         7.4550666997        9.2434560579        4.0435465134
  C         8.9222916961       10.4273340959        4.9931493510
  C         8.9512674412        9.7497511629        2.4751068995
  C         7.9589812491       10.4902479676        6.2205661492
  H         9.8184311486        9.8100782236        5.1402068304
  H         9.2365048663       11.4871528973        4.7693853817
  H         9.7835237230        9.1202427760        2.7658366613
  H         9.5362969407       10.5550630735        2.1588984188
  H         8.3635346852        9.5245619511        1.5526120132
  C         7.3011327821        9.1688718748        6.6544215225
  H         8.4709775334       10.8976239088        7.1206790872
  H         7.1724593750       11.1806945172        6.0696383726
  C         6.3631150200        9.3316903566        7.8720353785
  H         8.0097300709        8.3773712073        6.7629667817
  H         6.6050449190        8.7870881809        5.9222402708
  C         5.1258239058       10.2684773556        7.7013323032
  H         6.9834932659        9.7100101534        8.6471838093
  H         5.9721647377        8.3479135404        8.2569527103
  C         4.0035326830        9.5930060845        6.9737944661
  H         4.7805993089       10.5124528136        8.6860764581
  H         5.5096210878       11.2129593960        7.2886732604
  C         2.7336847912       10.5129004526        6.7458418354
  H         3.6920694001        8.7097420480        7.5162474813
  H         4.3913284339        9.1350460172        6.1029695742
  C         3.1006091999       11.8737532766        6.1125696457
  C         2.1322738921       11.1756119558        7.9573590708
  C         1.6523641283        9.7204329402        5.9245123878
  C         2.7498475002       12.9690865912        6.9338582784
  C         3.6112889913       12.2704418745        4.8478108383
  C         2.1002048512       12.5369502136        8.0696145875
  C         1.6619207497       10.5427420423        9.1049654361
  H         2.1746095173        9.2111223189        5.1130413378
  H         1.4170503356        8.9598988830        6.6664633935
  C         0.3567845666       10.3979825272        5.4171830352
  S         3.0548616417       14.5465573773        6.1404594049
  C         3.7322610142       13.6685796655        4.7944215302
  H         3.9099497044       11.4689846337        4.2039671777
  C         1.6006827110       13.0953613259        9.1936268509
  H         1.8447838886        9.4850560946        9.1830059986
  C         1.1942976887       11.1566395562       10.2497161464
  H         0.5817533779       11.4395154824        5.1248674314
  H        -0.3131106336       10.4500841319        6.2420055471
  C        -0.3917757263        9.7319711883        4.3294150945
  C         4.1573834661       14.4078144236        3.5946417990
  C         1.1019058819       12.4682595102       10.3481738857
  H         1.5947139913       14.2066208196        9.1275941357
  C         0.8300362508       10.7249146098       11.5041805137
  H        -1.1339932772        9.0476809886        4.7585102970
  H         0.2656498247        9.0646349368        3.7874174709
  C        -1.0677273265       10.7456411379        3.3307622912
  C         4.1943079388       15.7708446556        3.3735385787
  C         4.4859752506       13.6211403390        2.4035556672
  C         0.7425421254       13.1917360653       11.6594199188
  C         0.5116360018       11.7579964803       12.3701681885
  S         0.6187586877        9.1657327137       12.1732757634
  H        -0.4427332440       11.4485305229        2.8525231516
  H        -1.6108609268       11.4315975132        3.9516761428
  C        -1.9562271483       10.0786198922        2.2654189259
  N         3.9825308417       16.7395388654        4.3477292180
  C         4.4476950657       16.3347889354        2.1567262503
  C         4.8081975680       14.1387107335        1.1719065487
  H         4.5862439680       12.5469494921        2.4706498285
  C        -0.5773457096       14.0659628005       11.6352238702
  C         1.9234498144       13.8844398908       12.3669391885
  C         0.2497727049       11.3407737038       13.6734720759
  C         0.2571279179        9.9307918426       13.7201754655
  H        -2.6927637199        9.5029035666        2.7884842443
  H        -2.4423118003       10.7651583198        1.6555156870
  C        -1.2064523910        9.1543212710        1.3296778736
  S         3.9049371536       18.1960802555        3.6238698669
  N         4.3699039369       17.7233270318        2.1282351561
  C         4.7460614287       15.5480076947        0.9798829653
  H         5.0720537129       13.4803234719        0.3876984291
  H        -0.4151607052       15.0860983451       11.2370501879
  H        -0.8186420225       14.2813936514       12.6392157136
  C        -1.7613458051       13.3645324582       10.9277891155
  H         2.1124235653       14.8412915519       11.8111001511
  H         1.6120504927       14.1880251757       13.3393156976
  C         3.2834538149       13.1648382411       12.4608613328
  H         0.0738634998       12.0421637019       14.4889105014
  C         0.0536458098        9.1171817938       14.9537514739
  H        -1.9861705026        8.5831960574        0.6950455328
  H        -0.7058243353        8.4607290182        1.9597791448
  C        -0.1229682158        9.9407902907        0.4844059742
  C         5.1487020266       16.2363511694       -0.1999235083
  H        -1.5693413278       12.7965971636       10.0484804494
  H        -1.9871873190       12.5372093582       11.6317686708
  C        -3.0024718605       14.2736480692       10.8575121410
  H         3.7652303409       12.9462421288       11.4838310260
  H         3.1340856005       12.1843176209       12.9024859716
  C         4.3331794698       13.8312332862       13.4055122437
  C        -0.0632367274        7.6906672320       15.0775346752
  C        -0.2413864844        9.8342235958       16.2255643207
  H        -0.0212676016       10.9450814062        0.8156833498
  H         0.8757726808        9.5009234065        0.4874822219
  C        -0.6183386898        9.9580386075       -0.9522364017
  H         4.9845465764       17.3422283167       -0.0916241645
  C         5.3764296612       15.7527998057       -1.4807901773
  H        -2.7325520706       15.1403583373       10.2400021347
  H        -3.1087315546       14.8485565464       11.7713957980
  C        -4.2145902286       13.5013497973       10.3707290143
  H         4.6690104365       14.7732846223       13.1037460093
  H         3.9383382772       14.0162309563       14.3627902946
  C         5.5046149986       12.9005786244       13.6280765203
  N         0.0304300858        6.8535240996       13.9970932473
  C        -0.3594145072        7.0503872690       16.2745872100
  C        -0.4377527746        9.2072060784       17.4125255362
  H        -0.3593618869       10.8839976831       16.2141051408
  H        -0.1305839005       10.7144899364       -1.5134155557
  H        -1.6702234319       10.2688355025       -0.8190108754
  H        -0.4575728283        9.0010987476       -1.5097261131
  S         5.7098146220       14.1891285794       -2.1615644029
  C         5.4557590731       16.8242763770       -2.4866790404
  H        -3.7889007790       12.6045352280        9.9255139328
  H        -4.8453336027       13.3795147801       11.2941288420
  C        -5.0766310816       14.3184448035        9.3811855880
  H         5.2138636806       12.0426546330       13.0217855985
  H         5.3991013942       12.4711688122       14.6867073036
  C         6.8306002545       13.6088180972       13.3586045655
  S         0.0017558851        5.3635065831       14.5861066795
  N        -0.2924431292        5.6508168739       16.1258100771
  C        -0.5849200646        7.7376088955       17.5203930109
  H        -0.4931686741        9.9029383743       18.2267599946
  C         5.8965309578       14.9090825432       -3.6884693597
  N         5.8722107721       16.2667320892       -3.6525701893
  O         5.3079011967       18.0611162297       -2.3240622163
  H        -5.4138343041       15.1969094400        9.8458356380
  H        -4.4923179260       14.7004924038        8.5965774849
  C        -6.2455949800       13.5092620072        8.8300063785
  H         7.6518578291       12.9405303518       13.2119317975
  H         6.7254062089       14.2434196454       12.5266372489
  C         7.3169374849       14.5208469945       14.5606644029
  C        -0.9579276960        6.9879347501       18.6833318306
  S         6.0525185833       14.0444367564       -5.2297503154
  C         5.8462943233       17.1551506041       -4.8376561701
  H        -6.1475155865       13.5195427873        7.7680343524
  H        -6.0958897226       12.5059484160        9.0911068499
  C        -7.6357144176       13.9539089249        9.2970369355
  H         7.7211914925       13.7514796927       15.2727324332
  H         6.4779510082       15.0710372032       14.9485471327
  C         8.4116921154       15.5186815557       14.0779395106
  H        -0.7888790218        5.9060387234       18.7205210583
  C        -1.2795887918        7.4295219510       19.9688693690
  H         6.5329341389       16.6732655102       -5.5049959330
  H         6.2495166925       18.1486065718       -4.6311583823
  C         4.4467763081       17.3056963858       -5.5562522008
  H        -8.4874497143       13.4926432238        8.7438453345
  H        -7.8682720427       15.0147607963        9.2157150859
  C        -7.8290025058       13.4716481722       10.7627096327
  H         8.8490840512       15.9601841606       14.9665215494
  H         9.1538368481       15.0504828976       13.3952660373
  C         7.7905926721       16.6661362085       13.2905085288
  S        -1.6094851444        9.0260691248       20.4296276278
  C        -1.4975502646        6.4051754174       20.9512001431
  H         4.6395227008       17.9111788089       -6.4131284981
  H         3.6109431412       17.6600379759       -4.9578112937
  H         4.1056598868       16.3905384854       -6.0465696002
  H        -8.7687715921       13.8290825979       11.0646412379
  H        -7.9463997082       12.3917366338       10.8774561102
  H        -7.1129991337       13.7746985016       11.4131504383
  H         7.2433151632       16.3492700521       12.3965665613
  H         7.0415859246       17.1868306397       13.9978140061
  H         8.5683591937       17.3982834363       13.0686403602
  C        -1.9728941576        8.3797870759       22.0925335894
  N        -1.8353902362        7.0174451084       22.1696101223
  O        -1.3823216221        5.1770284250       20.7168788859
  S        -2.3285494255        9.3576988775       23.4825610424
  C        -1.8996237480        6.2587842515       23.3969550280
  H        -2.2818282928        5.2350428626       23.2960133832
  H        -2.6087849163        6.5820412758       24.1483740414
  C        -0.5681378692        6.2716664565       24.1757566126
  H         0.2312867309        6.1540921131       23.3943713002
  H        -0.4832649920        5.3025795963       24.6373753155
  H        -0.4310086551        7.1708566534       24.6629383579
