352
i =
  H        -2.6184979186       15.0777353497       16.1176023654
  C        -2.9649329155       14.0946511590       16.3341231061
  H        -3.8894890205       14.3788978437       16.7819935910
  C        -2.0054660986       13.3540463923       17.4066632056
  C        -3.2849427513       13.1809397536       15.0720250458
  C        -2.2165996777       13.7682609862       18.8572974216
  H        -2.3369962708       12.3665531633       17.2244046458
  H        -1.0041741122       13.5114081287       16.9711797305
  H        -4.3608155258       13.1121024128       14.9596028770
  H        -3.0329214625       13.7370798756       14.1665183395
  H        -2.8025068552       12.1267921732       15.0331582908
  C        -2.0288286258       12.7264498204       19.8931929389
  H        -3.2185672588       14.2847321565       18.8993428808
  H        -1.4751473522       14.4449653393       19.1024857586
  C        -2.3975781629       13.2116757665       21.2898331237
  H        -2.6414734917       11.8939466174       19.7581043210
  H        -1.0004795957       12.4183050924       19.9804523615
  C        -1.4220567884       12.6933202498       22.3165650621
  H        -3.3721808920       12.7403990977       21.4221747746
  H        -2.4010720323       14.2454213245       21.2647029988
  C        -0.1104952762       13.4980354116       22.4455362812
  H        -1.9998178590       12.6802066307       23.2091789111
  H        -1.2144480886       11.6511712949       22.0882670448
  C         1.0164786645       12.8517796895       23.2074180706
  H         0.2112825754       13.6986390622       21.4901006246
  H        -0.3349790827       14.4748391823       22.8731016162
  C         1.2623089037       11.4699318272       22.6280947327
  C         0.5912665986       12.1570239612       24.4837045117
  C         2.2415214567       13.6432671439       23.4920447999
  C         1.0958008499       10.3825533784       23.4450752325
  C         1.7450688156       10.9927583938       21.4034819271
  C         0.6443271841       10.8066381909       24.6737974126
  C        -0.0182170282       12.8500033358       25.5279905464
  H         2.4538185146       14.2102362092       22.6392867260
  H         2.0607156509       14.3652385838       24.3360748472
  C         3.4644511482       12.7739752521       24.0511690048
  S         1.5358765298        8.8905454148       22.8149583796
  C         1.9629116893        9.6622599816       21.3509139026
  H         1.9451553378       11.7260682018       20.5979193365
  C         0.0851289573       10.2897935758       25.8422417120
  H        -0.1886661593       13.9084649411       25.4334395031
  C        -0.4732543629       12.3522742667       26.6993841096
  H         3.6904044861       11.8080676006       23.6125640624
  H         3.1077857143       12.5513243764       25.0233047819
  C         4.6586217385       13.6708958471       24.2602208464
  C         2.4891252994        8.8763812283       20.2429106204
  C        -0.4366281658       11.0381104328       26.8877349783
  H         0.1431103833        9.2350815008       25.8191890074
  C        -0.8494864618       12.8475409295       27.9032486462
  H         5.3316022370       13.0752910839       24.9237381446
  H         4.4750776483       14.5775396381       24.7648738377
  C         5.3822830213       13.9080658978       23.0009397181
  C         2.3821163971        7.4801342530       20.0747951459
  C         2.8338985753        9.6508218781       18.9837221001
  C        -0.8836540439       10.4373179886       28.2263076774
  C        -1.0726600905       11.8517880086       28.8295713844
  S        -0.9852390145       14.4263732723       28.6928812024
  H         6.4427977264       14.0650549680       23.3721661315
  H         4.9641380020       14.7382583643       22.4321207513
  C         5.5043683546       12.7325951224       22.0126450222
  N         2.1102462395        6.5786560038       21.0455190531
  C         2.5891096159        6.8673447672       18.7989842057
  C         3.0943404914        9.0858101726       17.7347433572
  H         3.1137928395       10.6556180109       19.0564765832
  C         0.1845585247        9.5701829478       28.9077255852
  C        -2.1290988526        9.6161403450       28.0911992313
  C        -1.4500233082       12.2714729696       30.1426377734
  C        -1.4992214012       13.6697660966       30.1570571133
  H         6.3383895428       12.1212364090       22.4564073317
  H         4.6398700068       12.1435598450       21.8753863615
  C         5.7842634722       13.1259716033       20.5718635021
  S         1.7751698600        5.1334470638       20.3662038317
  N         2.3187732831        5.4685706723       18.8227650538
  C         2.9461325786        7.5644281979       17.5992080263
  H         3.5659402517        9.7121933267       16.9630729515
  H         0.4408303495        8.6050676403       28.4660619734
  H         0.0072436378        9.4516874754       30.0208863069
  C         1.5769652452       10.2240783832       29.0148542711
  H        -1.9290769605        8.5557852709       28.0391259758
  H        -2.5909395923        9.7017464926       29.0341128074
  C        -3.1511722149       10.2863335156       27.1381529627
  H        -1.5554792946       11.5714874186       30.9622139138
  C        -1.7090681762       14.5746982098       31.3514484456
  H         5.2178543661       14.0201727730       20.3922444897
  H         5.4317685505       12.2034399932       19.9694804963
  C         7.2620175359       13.4084276779       20.3881002421
  C         3.1893422745        6.8360270412       16.3899042545
  H         1.8734984036       10.7487138602       28.0969854991
  H         1.5028039288       11.0363466421       29.7476223209
  C         2.7083385751        9.2684447286       29.4915199728
  H        -2.8204237507       10.1732652382       26.0795258077
  H        -3.3046408841       11.3334686782       27.3645852504
  C        -4.5149239805        9.6456351245       27.2507262131
  C        -1.6670075351       15.9714789419       31.4376494923
  C        -1.9931588554       13.8332073954       32.6730060390
  H         7.6452528733       14.3004899256       20.8604807628
  H         7.7855528675       12.5548479204       20.7576131410
  C         7.6951327588       13.4398012135       18.9236981310
  H         3.2124062007        5.7748588504       16.5070731656
  C         3.6262184284        7.2099305489       15.1465331045
  H         2.8938751845        8.6928524908       28.6420645507
  H         2.3953181273        8.6365627072       30.2965098667
  C         3.9846727792        9.8663020287       30.0172595662
  H        -4.7638513683        9.0591084080       26.4019341207
  H        -4.4495468877        8.9862456258       28.1045374207
  C        -5.6369323999       10.6875979106       27.4120672949
  N        -1.3884139024       16.8135256537       30.3980273950
  C        -1.8648551606       16.6832791386       32.6168507422
  C        -2.2231767215       14.5940637387       33.7999914639
  H        -1.9815780994       12.7450164743       32.7408006518
  H         8.3346228403       14.2646438421       18.7293783726
  H         8.1584374375       12.5164000883       18.5460933863
  H         6.8047181366       13.5577972721       18.2760505940
  S         4.1902671609        8.7407517135       14.6369528516
  C         3.6141260254        6.2151633286       14.1006322510
  H         4.2836406790       10.7495388818       29.4671345980
  H         3.8012401174       10.2412731471       31.0529627819
  C         5.2361971687        8.9530141441       29.9542459502
  H        -5.3716902699       11.5430038825       26.7459887635
  H        -5.7393287163       11.0334324694       28.4283028768
  C        -7.0383400659       10.1968398620       27.1214395394
  S        -1.4912955236       18.3694253431       30.8696869490
  N        -1.8667398891       18.0243533311       32.4249611769
  C        -2.2780825424       16.0709651736       33.8035140359
  H        -2.4422485796       14.1158141777       34.7235466961
  C         4.1454987913        8.0100858184       12.9983146383
  N         3.8292727296        6.7119928036       12.8965676172
  O         3.4299068060        5.0368941373       14.3461139617
  H         6.1271385609        9.5563652801       29.8998705200
  H         5.1652391518        8.2960615127       29.0794755250
  C         5.2762995570        8.0004274381       31.1776815954
  H        -6.9713995356        9.0978606495       27.2278186463
  H        -7.6728263034       10.5186320507       27.8732152313
  C        -7.5204884086       10.6349515278       25.7578098186
  C        -2.5467863550       16.9160523796       34.9826420019
  S         4.5077052710        8.8375281433       11.5166825483
  C         3.5468460427        6.0069154730       11.6244879552
  H         5.4563129773        8.5190035406       32.1004070496
  H         4.3451666661        7.3783523278       31.2581657113
  C         6.4365846872        6.9489274984       31.0971136418
  H        -6.7484777320       10.4291803701       24.9062511226
  H        -7.7137622284       11.6605611448       25.8218639724
  C        -8.7535261711        9.9191308907       25.3598853741
  H        -2.2905151042       17.9932238017       34.8791821016
  C        -3.0128731810       16.5916160993       36.2268165292
  H         4.3136210534        6.1555605385       10.9259002374
  H         3.4741150651        4.9364026037       11.7569158772
  C         2.1398426172        6.3665356971       11.2158262129
  H         6.5205541768        6.5596832772       32.1545037540
  H         7.4283773271        7.2382014102       30.7169048485
  C         6.1590164986        5.7873246975       30.1911389862
  H        -9.1689442976       10.2018935733       24.4050066934
  H        -8.5648012986        8.8246560267       25.2985897281
  C        -9.7591891174       10.1474492847       26.4588871187
  S        -3.4915218049       15.0372265395       36.7421252011
  C        -3.0711705340       17.6123836093       37.2864702358
  H         2.2100458660        7.3620427694       10.7672103584
  H         1.7564503542        5.6474951928       10.5343858261
  H         1.3148691754        6.3634848014       11.9657128385
  H         7.0911564877        5.2108582114       30.1246603475
  H         5.9199240025        6.1938837725       29.2481638869
  H         5.2928421952        5.3102663353       30.5361693921
  H        -9.6416757446        9.6008816905       27.3234989415
  H       -10.7570476578       10.0666606987       26.1019571070
  H        -9.7155945922       11.1859242908       26.7208955682
  C        -3.7929432247       15.7758168488       38.3251722719
  N        -3.6481550309       17.1150299077       38.3700028399
  O        -2.7188560531       18.8237966631       37.1441954978
  S        -4.2732640999       14.9463882752       39.7945835936
  C        -3.5885916337       17.9572117785       39.5711778073
  H        -3.9278644113       18.9776756208       39.2451626011
  H        -4.2120360074       17.5837827295       40.3756458717
  C        -2.1940035368       18.1132456468       40.0797732572
  H        -1.3117984811       18.2360693070       39.3954457580
  H        -2.0577843353       19.0241913593       40.6302077096
  H        -1.8659941093       17.2423343056       40.7262841067
  H         7.6112628959       11.7100633273        3.7896600542
  C         8.0624892109       10.6808850754        3.7744094398
  H         7.2167607000       10.0195460082        3.5373994110
  C         8.7922849561       10.3724753063        4.9965249317
  C         8.9699430751       10.5799168957        2.6229260711
  C         7.9278624054       10.5850297662        6.2847240146
  H         9.1320750089        9.2953721397        5.0007870178
  H         9.7157378181       10.9663155560        5.0105947136
  H         8.2916549214       10.8381514995        1.8398178783
  H         9.5270269535        9.6014834121        2.6029823250
  H         9.7149493479       11.3782763950        2.6846664128
  C         7.4090352132        9.3466341169        6.9860672286
  H         8.6063864152       11.2179764265        6.9003877290
  H         7.1134824598       11.1865250553        5.9906656469
  C         6.7008638493        9.6779852274        8.3343016921
  H         8.0592264472        8.5014636345        7.2200170321
  H         6.6409770122        8.8276801548        6.3432672753
  C         5.4658238258       10.6411407695        8.1925326153
  H         7.3516563596       10.1973998655        9.0095714928
  H         6.3122359371        8.7810844046        8.8103584020
  C         4.1797173437        9.9701646510        7.6747836684
  H         5.1640468041       11.1702464667        9.0987569514
  H         5.6939318896       11.5072359906        7.5828793448
  C         2.9414993850       10.8594775115        7.3821181083
  H         3.9112425655        9.1749657392        8.3343603565
  H         4.4420701711        9.4217103021        6.7610991373
  C         3.2003018501       12.1747861496        6.7245822194
  C         2.5533074693       11.4858555412        8.7156764895
  C         1.8001198238        9.9739398472        6.7273058174
  C         2.9392622676       13.2632346454        7.5264527200
  C         3.7488512478       12.5633595888        5.4846466169
  C         2.5326450165       12.8054958885        8.7536974521
  C         1.9466456438       10.8230020900        9.7485078866
  H         2.2888164497        9.3122239468        5.8822999187
  H         1.5262629702        9.2406835371        7.5288516341
  C         0.5522961677       10.6669164360        6.2469100013
  S         3.3007417035       14.7803574220        6.7567673716
  C         3.8032855458       13.9160549428        5.3367594316
  H         4.0572994817       11.8466365910        4.8136481458
  C         2.0268257126       13.4174726975        9.8799600653
  H         1.8682317554        9.7328939491        9.7089496075
  C         1.5496224820       11.4150758467       10.8801564272
  H         1.0329848488       11.4822418522        5.7861766711
  H        -0.0130669590       11.0393344863        7.0916540412
  C        -0.2812669631        9.9263392717        5.1861652074
  C         4.1152344560       14.6179295152        4.1005535245
  C         1.6064439415       12.7325700325       11.0249136577
  H         1.9463849706       14.4789744366        9.9332438470
  C         1.0614804537       10.9866832631       12.0426824967
  H        -1.3205750458       10.2824900356        5.2489750870
  H        -0.2944349571        8.9226763881        5.5057665079
  C         0.2048582281       10.0195409020        3.7251122985
  C         4.0589692691       16.0601940876        3.7581926658
  C         4.6093164214       13.7601969758        3.0031559515
  C         1.1365187248       13.4186702473       12.2222002401
  C         0.8391917254       12.0444915206       12.8345445600
  S         1.0439719298        9.4466982810       12.7643456442
  H         1.0317757455        9.3098421429        3.7623329486
  H         0.7330208026       10.9727448417        3.5445293917
  C        -0.9589235428        9.8495286973        2.7150557701
  N         3.5699619264       17.0573713586        4.5944598741
  C         4.4307685144       16.5701714286        2.5247134191
  C         4.8262352157       14.3176055459        1.7421165748
  H         4.7318523478       12.6845252066        3.0769387997
  C        -0.1522187586       14.2907027637       12.1194795593
  C         2.2348662578       14.0368950997       13.1043851421
  C         0.3147570837       11.5826848933       14.1086127739
  C         0.4428547713       10.2025182217       14.2483256345
  H        -1.6657047981        9.1482706998        3.1254613133
  H        -1.5298589566       10.7166781172        2.5779708318
  C        -0.4396987664        9.4417938732        1.3067950351
  S         3.7843464156       18.5172694134        3.8636123973
  N         4.4380040884       17.9503851122        2.5341698899
  C         4.7595438923       15.7674677645        1.4712553325
  H         5.2091588281       13.6519901225        0.9870085048
  H         0.1291398465       15.1807863672       11.5492916734
  H        -0.5278938852       14.6295459239       13.1028366425
  C        -1.2651052674       13.4555943771       11.4397988918
  H         2.7152722592       14.8877161681       12.7465381870
  H         1.6641533216       14.2388757168       13.9779556883
  C         3.4029149653       13.1419784029       13.6081198934
  H        -0.0076545208       12.3340777721       14.8459625349
  C         0.3268500836        9.4397146720       15.5433293430
  H        -0.1506427838        8.3573556769        1.5072529754
  H         0.4713723514       10.0006358495        1.0682669495
  C        -1.5912140745        9.3628718867        0.3187376686
  C         5.0099352310       16.4070735006        0.2107496896
  H        -0.9584188727       12.9242405616       10.5080436884
  H        -1.5445336131       12.6809274468       12.1119658251
  C        -2.5196203288       14.2292809935       11.0255435398
  H         3.8172555375       12.5467590899       12.8148035564
  H         3.0364028377       12.4508512217       14.3817120114
  C         4.4878852055       14.0467301615       14.1989230125
  C         0.2771875401        8.0829240507       15.5811142453
  C        -0.1049316115       10.2182269942       16.7117289890
  H        -1.4764337395        8.4174077496       -0.2384139856
  H        -2.5918998775        9.3010765662        0.7616949774
  C        -1.5833678475       10.4581930762       -0.6636661573
  H         4.7555084150       17.5058990079        0.1090559149
  C         5.2434778664       15.9507559656       -1.0786004029
  H        -2.1355739027       15.1544111389       10.5286328752
  H        -3.1478095740       14.4690551075       11.8342491531
  C        -3.4564201382       13.5444656504       10.0436843613
  H         4.8325997738       14.6784222888       13.4711459041
  H         4.0034194539       14.6270794433       14.9455411570
  C         5.6487658689       13.2687612633       14.8561929231
  N         0.5326870820        7.1802295543       14.5303665544
  C        -0.1598864784        7.4700233988       16.7393353033
  C        -0.4719335006        9.5759317540       17.8808399103
  H        -0.1219566004       11.2787681986       16.6810154266
  H        -1.4124706506       10.1784094372       -1.6805924166
  H        -0.8082359009       11.0792451442       -0.4693419280
  H        -2.3849351797       11.1170464742       -0.5481172060
  S         5.5488353030       14.2699848661       -1.5008684631
  C         5.2474001345       16.8724826013       -2.2297616822
  H        -3.5530021974       14.0326096068        9.0425994324
  H        -3.1772346340       12.5587674119        9.7431216734
  C        -4.7657625039       13.3323694388       10.8138758003
  H         5.3966963609       12.1773554494       15.0171345514
  H         5.7493668875       13.5961936723       15.8921784497
  C         6.9917645117       13.3945142093       14.2548677004
  S         0.2355821573        5.6666666223       15.0758140677
  N        -0.0950320045        6.0645717369       16.5498625461
  C        -0.5497721811        8.0690691926       17.8928252422
  H        -0.7393466721       10.1982540517       18.7235640164
  C         5.5789581770       14.8479997703       -3.1555112434
  N         5.4089620103       16.2038395965       -3.3598910852
  O         5.0439473726       18.0745030805       -2.0419681232
  H        -4.5974277893       12.7762815893       11.7553744892
  H        -5.2298525370       14.3364340326       11.0034223993
  C        -5.7794564812       12.6575427641        9.9484712012
  H         7.7290852231       12.6921248567       14.7412868030
  H         6.8540679942       12.9075934849       13.3339944660
  C         7.6781364864       14.7712568532       14.0427005085
  C        -0.7735270126        7.2609014985       19.0700976980
  S         5.9140047238       13.9717962122       -4.5620594879
  C         5.2311522028       16.8534610131       -4.6776364364
  H        -5.3258879840       11.7743342983        9.4806920458
  H        -6.6390505812       12.2595510051       10.4057826838
  C        -6.4463659776       13.5372758894        8.9317734511
  H         7.0172489402       15.2781326680       13.3781270506
  H         8.6850651845       14.6772644989       13.5493308601
  C         7.8798541079       15.5936207411       15.3223268835
  H        -0.3516859857        6.3103860235       19.0069358099
  C        -1.4740266955        7.5867788316       20.2032038580
  H         5.8140288635       16.3117666385       -5.4494746836
  H         5.6696602895       17.8180684820       -4.6181982706
  C         3.7190316044       16.7807121045       -5.1209775001
  H        -6.6249296296       12.9251869298        8.1097258488
  H        -5.9506154109       14.4152838819        8.6448183653
  C        -7.9311309243       13.9038806412        9.4107759274
  H         6.9815613298       15.9171068804       15.8249059940
  H         8.5055695436       14.9437450705       15.9531875923
  C         8.7333287369       16.7657807974       14.9129300866
  S        -2.1093049353        9.0935089475       20.7300183526
  C        -1.4847713954        6.5082399605       21.2800289197
  H         3.3681989545       16.0489044162       -5.9086413005
  H         3.4226402613       17.7207902199       -5.5873502660
  H         3.0600147081       16.5670418718       -4.3442054694
  H        -8.6124687541       13.0193123079        9.1200381611
  H        -7.9667337759       14.2144657580       10.4564701612
  H        -8.3506795291       14.7057846782        8.7522706590
  H         9.0253717953       17.2645307134       15.8196821803
  H         9.5506935710       16.5074251445       14.2929110212
  H         8.0858553004       17.4793950628       14.2967236232
  C        -2.2876641992        8.3733845638       22.3317907268
  N        -2.0101925648        7.0007831327       22.3963728827
  O        -1.0671157759        5.3486709381       21.0618616172
  S        -3.2465687173        9.1159358521       23.6825830204
  C        -1.9455394091        6.1456844614       23.5590571709
  H        -2.1085634705        5.0659189864       23.3746165959
  H        -2.7675567983        6.5178521889       24.1097426904
  C        -0.6789926302        6.3863360177       24.3450967382
  H        -0.5227757348        5.6063290193       25.0358118666
  H        -0.8439800719        7.2358182396       25.0201678860
  H         0.2684623558        6.5617951435       23.7569274407
