352
i =
  H        -3.5698755518       14.9581942167       16.6587187926
  C        -3.1372507250       13.9658405171       16.3963757845
  H        -3.9742532138       13.2430916893       16.4803090424
  C        -2.0081842314       13.5649654078       17.3792529852
  C        -2.6244937301       13.9129378707       15.0035763605
  C        -2.3658742954       14.0258664162       18.7895102608
  H        -1.8902661216       12.5276852014       17.3307196295
  H        -1.0998056191       14.0762613669       17.1400987281
  H        -2.0607565657       12.9343447356       14.9666750199
  H        -3.5699761984       13.9253332501       14.3561460540
  H        -2.0194469914       14.7402260069       14.7282590904
  C        -1.3799211729       13.2750193437       19.6763840611
  H        -3.3609998270       13.8476196531       19.0363877076
  H        -2.2151424241       15.1233773708       18.7875548871
  C        -1.8174339575       13.4450715859       21.1883997899
  H        -1.3985308590       12.2587762531       19.3969963466
  H        -0.2979847311       13.4483597149       19.6853563054
  C        -0.9115565140       12.7945168441       22.1914006150
  H        -2.8482044793       12.9422887696       21.0846111172
  H        -1.8728153933       14.5777670453       21.3352556135
  C         0.1435917606       13.8056894092       22.7217644476
  H        -1.5220633247       12.4159041815       22.9773120473
  H        -0.4674490219       12.0211347351       21.5357838551
  C         1.2979869520       13.1007720262       23.4428699065
  H         0.5724100507       14.4797252393       21.9368510427
  H        -0.2918146898       14.5241205047       23.3954023454
  C         1.6654458189       11.8206217759       22.7624542217
  C         0.8837348608       12.3772689233       24.7014425562
  C         2.5090546225       14.1047858688       23.8158540160
  C         1.4720707545       10.6797891215       23.5221084893
  C         2.1913109687       11.4331534831       21.5012120336
  C         0.9571125177       11.0113391887       24.7561105110
  C         0.5401012303       12.9697589294       25.8686441829
  H         2.6165123183       14.5775669128       22.7707602319
  H         2.2166319294       14.8620578655       24.5122318356
  C         3.8038756007       13.4351934913       24.2342524437
  S         1.9359159132        9.1323345903       22.7722225891
  C         2.3580714851       10.1011229315       21.2920465308
  H         2.4602808787       12.1802728818       20.8425661819
  C         0.5389766545       10.3144957434       25.8247716022
  H         0.3616765233       14.0112263848       25.7979871857
  C         0.0949949942       12.3314869140       26.9478579062
  H         4.0822878798       12.7390541184       23.4853124015
  H         3.6617154389       12.8612478385       25.2388337512
  C         5.0785176997       14.3016455668       24.4147414039
  C         2.8182207811        9.4052589114       20.0454166678
  C         0.1270622944       10.9293451698       27.0583032561
  H         0.5608992116        9.2644822813       25.7319267488
  C        -0.4174478469       12.6872950383       28.1456314213
  H         5.6887355278       13.7172933925       25.0678859555
  H         4.7759032598       15.2293921198       24.9542515475
  C         5.7992134239       14.4986549064       23.0516263465
  C         2.8011950516        7.9558988472       19.7986801001
  C         3.1312062892       10.1248413449       18.8463125061
  C        -0.4131031864       10.1741135376       28.2165484779
  C        -0.7162143869       11.5613460862       28.8805417603
  S        -0.7171505414       14.2116779661       28.9165591916
  H         6.2316638071       15.5459407778       23.1809056624
  H         4.9973883822       14.6286620158       22.3542616078
  C         6.7143933917       13.4121261928       22.4860514534
  N         2.2621356624        7.0040906609       20.6477622167
  C         3.2432243835        7.3956136092       18.6174892716
  C         3.3718222138        9.5634431641       17.6179770285
  H         2.9977096531       11.1943905275       18.7947106832
  C         0.6764669964        9.2956395587       28.8571092688
  C        -1.6635964938        9.4606791092       27.7480921178
  C        -1.3197096663       12.0326311853       30.1045844155
  C        -1.2483062377       13.4182681509       30.2917622856
  H         7.4734074666       13.0647371668       23.2555080303
  H         6.1095419377       12.6056455662       22.2555475093
  C         7.5354713183       13.8467089838       21.2552976874
  S         2.6025715206        5.4906403776       20.1818622466
  N         3.1531398085        5.9939940882       18.7218186175
  C         3.4984871200        8.0692643682       17.4786349994
  H         3.5197630151       10.1070654130       16.7638276371
  H         1.1166025480        8.6817283606       28.1303550958
  H         0.3212292584        8.6416123396       29.6198794931
  C         1.7127139690       10.1799224757       29.5206007179
  H        -1.4372678598        8.7690167922       26.8559660561
  H        -2.0334057604        8.6768030599       28.4695221487
  C        -2.7976801287       10.4138380289       27.3843976792
  H        -1.7578174120       11.2339726841       30.7639534899
  C        -1.6251047527       14.1887804934       31.5405387118
  H         8.5755015620       13.8934928880       21.4813852413
  H         7.1127765692       14.8003647373       20.9608186824
  C         7.4573991915       12.9509333399       20.0662729313
  C         3.6762319560        7.4031770155       16.1942106283
  H         2.0655417072       10.9571481349       28.8104968002
  H         1.1888017100       10.7674310205       30.3877278732
  C         2.6880492432        9.2219380726       30.1975779191
  H        -2.4431390267       11.1084568325       26.6179336462
  H        -3.0968067955       11.1551634329       28.2442167515
  C        -3.9917283318        9.4819526440       26.9550928360
  C        -1.6432371689       15.5813727912       31.7046585232
  C        -1.7707960055       13.4010408522       32.8111526650
  H         8.3290703167       12.3564153560       20.2049089022
  H         6.5698475220       12.3105751338       19.9960702765
  C         7.6987897182       13.7767589545       18.7608510082
  H         3.0148675381        6.5733012683       16.1394930238
  C         3.8971206787        7.9286197572       14.9222250114
  H         2.8199173798        8.4469569674       29.5125387652
  H         2.2109600636        8.8658665674       31.0900239669
  C         4.0889045117        9.8914904528       30.2861276391
  H        -3.6752269779        8.6981987130       26.1859300855
  H        -4.4984059764        9.0848045550       27.7301783372
  C        -5.0254722652       10.5146646117       26.2824772083
  N        -1.4129246995       16.5024713524       30.6413493958
  C        -1.8806943554       16.1595523747       32.8896003572
  C        -2.0090383724       14.0252863858       33.9844120275
  H        -1.5921314666       12.3166220124       32.8544802104
  H         6.8483072443       14.1881968407       18.4597609886
  H         8.4216235303       14.5712945679       18.9098317102
  H         8.1678027447       13.0840165685       17.9997467366
  S         4.1958429244        9.5296901930       14.5564715282
  C         3.8445537631        7.0228701146       13.7950039014
  H         4.2959905398       10.7580953319       29.6232046867
  H         4.3067280193       10.2836919033       31.2948373598
  C         5.2847607348        8.9380398024       29.9977117937
  H        -4.7876313185       11.0511697415       25.4065045498
  H        -5.3569891798       11.2678496222       26.9306678700
  C        -6.3168567748        9.7758885159       25.9142013726
  S        -1.7694445673       17.9714053158       31.2157134156
  N        -1.9096000670       17.5132413598       32.7483136762
  C        -2.1043182251       15.4913533429       34.1126505629
  H        -2.2457839735       13.4917346068       34.8844334024
  C         4.2341139027        9.0696807373       12.8554927795
  N         4.2673039633        7.7518643125       12.6792453627
  O         3.7144407848        5.8592255477       13.8620059196
  H         6.2863655435        9.3910059700       29.9035394042
  H         5.1707558382        8.4298867096       28.9804951970
  C         5.4693258859        7.8119993048       30.9882757050
  H        -6.2294899658        8.8738197073       25.1959521717
  H        -6.5853053802        9.3924380152       26.8370971988
  C        -7.4035973027       10.7117000480       25.3493203840
  C        -2.5441438302       16.3642408831       35.2511277069
  S         4.5927502691       10.1568882912       11.5388457871
  C         4.5808825153        7.0886397526       11.5003786783
  H         6.3734373379        8.0775715771       31.5922698374
  H         4.6213240690        7.6646617061       31.6962138386
  C         5.6733959910        6.4190716218       30.4292265431
  H        -7.0149311473       11.0943595702       24.4200954759
  H        -7.4504271575       11.6292066567       25.9807653154
  C        -8.7996320605       10.0894957315       25.1984319760
  H        -2.5014648262       17.3929896208       34.9743077830
  C        -3.1266966996       15.9510272402       36.3798112673
  H         5.3580668115        7.6175943366       10.9605039411
  H         5.1032516970        6.1185794136       11.7831246835
  C         3.2436578358        6.8724865918       10.6636877971
  H         6.5070286281        6.4601518758       29.6867784216
  H         4.7947230046        6.0954418304       29.9523057318
  C         5.9919306585        5.4755695353       31.5562610815
  H        -9.2439193168       10.6261023984       24.4407689519
  H        -8.8304171801        9.0837514004       24.6349838932
  C        -9.7400077982        9.9551752668       26.4440629245
  S        -3.4860768278       14.3617507208       36.8904133625
  C        -3.4116159501       16.9551115240       37.3788114848
  H         3.1791700360        5.8543729952       10.1666981756
  H         2.2370696329        7.1445154913       11.0897374936
  H         3.3545797740        7.4358847300        9.8072535151
  H         6.4883214702        4.5842927266       31.1897627206
  H         5.1396108849        5.0328704219       32.0562903622
  H         6.5029834928        5.9359474121       32.3867023134
  H       -10.6223153788        9.5010596313       25.9920918208
  H        -9.9802612688       10.7039643857       27.0987442017
  H        -9.4050331522        9.2985211769       27.1746084395
  C        -4.0724300674       14.9952020099       38.3902946790
  N        -4.0778389152       16.3338159816       38.3960440872
  O        -3.0436587207       18.0991700932       37.3572834964
  S        -4.8744495251       14.0981826721       39.7137965255
  C        -4.4333198442       17.1390182541       39.5802681698
  H        -4.6569444641       18.1293563173       39.3391012158
  H        -5.3398614818       16.7849912103       39.9285868840
  C        -3.3191963248       17.0845978338       40.6064997161
  H        -2.7558511060       17.9938349422       40.7086800475
  H        -3.7084587316       16.8242796049       41.6488790968
  H        -2.4948178377       16.5434408934       40.2595283653
  H         9.8671296189       10.8150039016        3.7625503696
  C         8.8544669630       10.6986376427        3.5393956527
  H         8.4181361392       11.7190191739        3.4879301238
  C         7.9318965729        9.7816128567        4.3954362963
  C         8.7341964494       10.3498027640        2.1378357981
  C         7.5320201264       10.3749247740        5.7809347628
  H         7.0125775357        9.4045119362        3.9649058273
  H         8.4132780592        8.8971795096        4.5788828612
  H         7.6008794240       10.3670144490        1.8721540754
  H         9.2823741574        9.4206706826        1.9293552491
  H         9.1959102681       11.0919549535        1.4486546793
  C         6.9487757021        9.3189573855        6.6897522684
  H         8.3747220039       10.8067992452        6.1643975396
  H         6.8763940660       11.1504733046        5.3446365059
  C         6.2643416909        9.6164323614        7.9985719436
  H         7.8358878993        8.7646475868        7.0790161152
  H         6.2580836034        8.8273832777        6.0906846033
  C         5.0777174403       10.6173140182        7.7148384212
  H         6.9234455857        9.9804821657        8.7650349641
  H         5.8281877351        8.7028913797        8.3779107832
  C         3.8319132948        9.8026021765        7.2517932696
  H         4.8741779530       11.1823701837        8.6180296917
  H         5.4873896355       11.4611810280        7.1063117454
  C         2.5776322409       10.6832365388        6.9392962955
  H         3.5561973234        8.9367365194        7.8389906925
  H         3.9970207263        9.4244930561        6.2804146991
  C         3.0476866413       12.0022669527        6.2956267161
  C         2.1517909122       11.3361233196        8.2032807762
  C         1.4554878911       10.0063686807        6.1898597225
  C         2.7392249231       13.0782932621        7.0881627532
  C         3.6967023476       12.4222092289        5.0848485032
  C         2.2122366142       12.6760177217        8.3015889997
  C         1.7622480667       10.6670179899        9.3574438498
  H         1.7744007733        9.4968309415        5.2788843080
  H         1.0539200091        9.0488781124        6.6946366702
  C         0.2186943035       10.8288277801        5.8035403136
  S         2.8847744046       14.5388208098        6.3780881716
  C         3.5977108929       13.7673511173        4.9746841804
  H         3.8759009788       11.6474217092        4.3410101257
  C         1.8612664199       13.3287597843        9.4590537520
  H         1.7420653436        9.6262766534        9.2399717581
  C         1.5485398295       11.3546755271       10.5085714752
  H         0.6735904798       11.7935373408        5.4803598182
  H        -0.4586356666       11.0231286387        6.6714135068
  C        -0.5592971268       10.0812796988        4.6932585045
  C         4.1542307617       14.5347045605        3.7425600001
  C         1.5179309099       12.7146692138       10.6372735737
  H         1.9060704503       14.3862086298        9.5535027813
  C         1.3353415512       10.9419243100       11.7996622829
  H        -1.5380640932       10.2673437933        4.8757225119
  H        -0.4299045177        8.9810814411        4.9017071702
  C        -0.1752668977       10.4078323134        3.3228933953
  C         3.9856382862       15.9215825444        3.5669292073
  C         4.3729926883       13.8101524025        2.4785627621
  C         1.2609745248       13.4124851493       11.9198304325
  C         1.1004546325       11.9982071540       12.6509206195
  S         1.0891744260        9.4379569486       12.5521715495
  H         0.8962876110       10.3703306980        3.1670533218
  H        -0.4191711973       11.4129296760        3.1382366443
  C        -0.9552260304        9.6856754800        2.2060347418
  N         3.9095980900       16.9058395730        4.5851575303
  C         4.2453692964       16.5675725500        2.3491430772
  C         4.8258095236       14.4133444507        1.2785675856
  H         4.7276285347       12.7845129074        2.5209576631
  C        -0.1212768958       14.1686505076       11.9347823727
  C         2.3481075783       14.2541301577       12.6204963473
  C         0.8736441661       11.6413783142       13.9891326841
  C         0.8245587106       10.2426053612       14.1246512449
  H        -0.7455348636        8.6558503405        2.2455155805
  H        -2.0160380291        9.8270685667        2.3931947942
  C        -0.5602828079       10.1753863040        0.8236712525
  S         3.8632305041       18.3577280160        3.8996536525
  N         4.1760143541       17.9679485207        2.3967951987
  C         4.6191809483       15.9089976007        1.1256588401
  H         5.1997764457       13.8162533268        0.4279005293
  H        -0.0143293860       14.8637995962       11.1344623309
  H        -0.2441796745       14.5816229916       12.9235389248
  C        -1.2925365123       13.3744142941       11.4080821023
  H         2.7203159003       15.1321467254       12.0626699981
  H         1.8288790389       14.4509363530       13.5520508543
  C         3.6248007476       13.5577201512       13.0082788058
  H         0.7154534372       12.4306269204       14.6512600903
  C         0.5197969811        9.5865929113       15.3468640741
  H         0.4166909061        9.7461411113        0.5827728147
  H        -0.4079339164       11.2928814205        0.8896780044
  C        -1.6419431388        9.7504938656       -0.1685986182
  C         4.7937512153       16.7336075318       -0.0569913026
  H        -1.1747735270       12.7890235294       10.5286816360
  H        -1.4480580486       12.5625501317       12.0769077340
  C        -2.5152107580       14.1448151073       11.1678786644
  H         4.1030720801       13.1437732756       12.0681244761
  H         3.4146442888       12.6758562397       13.7077072158
  C         4.6077803147       14.4025608898       13.7710534632
  C         0.3849295821        8.1938289523       15.4842603803
  C         0.3893979488       10.2806671871       16.6468941381
  H        -1.4555245444        8.6913748452       -0.2994316396
  H        -2.6664035183        9.8679397530        0.2123882811
  C        -1.5161699580       10.5291165947       -1.4956787253
  H         4.4459396572       17.7379478576        0.0028831305
  C         5.0820777537       16.4134786645       -1.3783275602
  H        -2.3985433953       14.9335298393       10.4717516056
  H        -2.6345843140       14.6530374496       12.1290223421
  C        -3.7484236276       13.2957046287       10.7414623983
  H         5.0136726317       15.1114051881       12.9589128635
  H         4.1771822260       15.0151025541       14.4582923752
  C         5.7677327530       13.4809334293       14.2627608841
  N         0.7065991810        7.2471883429       14.4899963917
  C         0.0488462884        7.5299595154       16.6429962283
  C        -0.1198622914        9.6831610389       17.7593888423
  H         0.6786435081       11.3443240195       16.6704630626
  H        -0.4746830547       10.7654890435       -1.7692182578
  H        -2.1230370374       11.4907150634       -1.3997361028
  H        -2.0132804252        9.9006875353       -2.2967890217
  S         5.3433876925       14.9031048636       -2.0241541049
  C         5.1313789830       17.5150888450       -2.3816913932
  H        -3.2475166317       12.4929636991       10.1422095436
  H        -4.2569805013       13.0044127009       11.6945522019
  C        -4.7707263624       14.1361388460       10.0577628569
  H         5.8295434159       12.5670352146       13.6778983108
  H         5.5226377508       13.3341762068       15.3954242430
  C         7.1193012458       14.0573594518       14.2445177146
  S         0.3602851522        5.7064827790       14.8820721459
  N         0.0271143143        6.1022120593       16.4422856351
  C        -0.2482851372        8.2225274289       17.8421453192
  H        -0.2522103433       10.2829168618       18.6476375706
  C         5.5407648801       15.7317304319       -3.5783179812
  N         5.4158370074       16.9996433122       -3.6010093687
  O         5.1279625133       18.6651970100       -2.0922497267
  H        -5.2161477625       14.8998181554       10.7625798588
  H        -4.2330581127       14.5830235203        9.2513626638
  C        -5.8307034642       13.2610358157        9.2898576846
  H         7.8363601815       13.2894617010       14.4683040448
  H         7.2253199752       14.4059588173       13.2471048393
  C         7.3016938636       15.1379011994       15.3479869871
  C        -0.5451387308        7.4382530155       18.9569195861
  S         5.8620775863       14.8073429988       -5.1218843936
  C         5.1553271503       17.7737866170       -4.7805257857
  H        -5.5143565766       12.9799977128        8.3301977231
  H        -5.8061596304       12.2769879102        9.6951603295
  C        -7.2027004933       13.9035679629        9.3414665127
  H         8.2618479892       14.8913681823       15.8788677611
  H         6.5635158887       15.2443914835       16.1176458017
  C         7.3350394654       16.5728804707       14.7026732561
  H        -0.3746407253        6.4121015094       18.9111200747
  C        -1.0556605625        7.7838031539       20.1852174485
  H         5.6054768824       17.5955203078       -5.7987227905
  H         5.4289205011       18.8629006809       -4.6191947950
  C         3.7020896077       17.7517124961       -5.1769921068
  H        -7.5336229641       13.7768984133        8.3183729621
  H        -7.0062934448       14.9327479149        9.5446256969
  C        -8.0905059462       13.4942291609       10.4618999888
  H         6.3831720729       16.8189635391       14.1780128781
  H         7.4060786154       17.3319554337       15.5486953102
  C         8.3713196224       16.7525689779       13.6935082701
  S        -1.4606335861        9.3986382218       20.7191506558
  C        -1.1548695969        6.7360631302       21.1957688483
  H         3.0711523985       17.7288033955       -4.3250823638
  H         3.5218025622       16.8250539911       -5.8008194422
  H         3.6380690689       18.7549185616       -5.6976697972
  H        -7.9562372075       12.4656134108       10.7612107839
  H        -8.1404412960       14.2916600437       11.1792639504
  H        -9.0385237127       13.5480962550       10.0287037721
  H         8.8271629831       17.6983227387       13.5410921662
  H         9.1071959001       16.0195198981       13.8602919867
  H         8.0034673018       16.4871509334       12.7572693328
  C        -1.9552675390        8.6692330060       22.2435065727
  N        -1.7978771957        7.3263259971       22.2638700352
  O        -1.0558822313        5.5061008838       21.0023434535
  S        -2.7802516896        9.5075335151       23.5500970053
  C        -2.1375345060        6.4729235946       23.4219477664
  H        -2.3550114130        5.5042743103       23.0033621864
  H        -3.0057536135        6.7257984611       24.0261037642
  C        -1.0065841176        6.4993791593       24.3992067419
  H        -0.0485386741        6.6000085977       23.8535949308
  H        -1.0813049944        5.4878897767       24.8469404939
  H        -1.0413680031        7.2997828508       25.1549419792
