352
i =
  H        -3.3494053824       15.0165176620       16.3640625970
  C        -3.1567316173       13.9088370241       16.4637560461
  H        -4.0785259405       13.4963412785       16.7481304354
  C        -2.1234851921       13.6509652448       17.5096117962
  C        -2.8359639363       13.2579047745       15.0787947441
  C        -2.5571338399       14.0320352639       18.9415145701
  H        -1.9098423111       12.5916087502       17.4930780088
  H        -1.1773283429       14.2403935416       17.2825372631
  H        -3.5810571026       13.6779974864       14.4427585507
  H        -1.9037241957       13.5603971202       14.7614160586
  H        -2.8365590253       12.1674632932       15.0841876234
  C        -2.1366788152       12.9488486563       19.9321356036
  H        -3.6537661676       14.1589548451       18.9593434686
  H        -2.1762878865       14.9796783021       19.3702493797
  C        -2.5312783398       13.2017359321       21.3645212536
  H        -2.5787180474       11.9897601993       19.6329659720
  H        -1.0571459063       12.7151714160       19.8172685283
  C        -1.4331146515       12.7179268212       22.3070294420
  H        -3.4857419803       12.7520167013       21.6635957543
  H        -2.5838276437       14.2449834223       21.5297335621
  C        -0.2403654261       13.6488635323       22.6580345938
  H        -1.9212730712       12.4770958240       23.2596306283
  H        -0.9704357634       11.7851949856       22.1029399574
  C         0.9471819057       12.8471549719       23.2337922433
  H         0.0825424534       14.1841673362       21.7521032646
  H        -0.5553300484       14.5289247390       23.2532893700
  C         1.3476702096       11.5825101850       22.4301826096
  C         0.6458698381       12.0076300701       24.4363267373
  C         2.1524593881       13.7166991731       23.5753508597
  C         1.1726716371       10.3760118360       23.1532043795
  C         1.9179412483       11.2973493696       21.1457870907
  C         0.7448722630       10.6680189692       24.4268381040
  C         0.1212332791       12.4795198249       25.6135948304
  H         2.3853741749       14.6108261470       22.9582640436
  H         1.9919720597       14.2538086670       24.5295546021
  C         3.5021362401       12.9938140760       23.7738864432
  S         1.7139332032        8.9627020268       22.3324422447
  C         2.1370855970        9.9074670579       20.9788726937
  H         2.1010707407       12.1446054997       20.5139366613
  C         0.4222075781        9.8539680173       25.5133082437
  H        -0.0215193789       13.5260556741       25.7459352808
  C        -0.1397062912       11.7480758163       26.7267122233
  H         3.8090894506       12.2542560800       23.0323676988
  H         3.4529725147       12.4043054497       24.6655246981
  C         4.5996083959       13.9355211876       24.0022791180
  C         2.4990377567        9.3105319043       19.6083791204
  C        -0.0333824122       10.4271822520       26.6948210856
  H         0.3811407204        8.8164410996       25.4515997641
  C        -0.5167942688       12.0612542109       28.0226913268
  H         5.3399450550       13.4594783478       24.5654267499
  H         4.3960648705       14.8566899277       24.5391922144
  C         5.2862818138       14.2941010763       22.6928045933
  C         2.6627043197        7.9507864914       19.4054887799
  C         2.8472896930       10.2136637951       18.5044815892
  C        -0.4838157518        9.6308526861       27.8898494474
  C        -0.6929058921       10.9515359630       28.7908286775
  S        -0.8799692197       13.5126022523       28.8660780897
  H         5.9563535461       15.1175066313       22.9560642267
  H         4.5943944022       14.8056775005       21.9702884689
  C         6.0161493616       13.2454332962       21.8585804223
  N         2.4228607820        6.9483949808       20.2907356300
  C         2.9160590296        7.4211252434       18.1265530579
  C         3.1089900930        9.7591280430       17.2514222614
  H         2.8395657929       11.2728110733       18.6703695585
  C         0.6534691858        8.8811650066       28.6080734165
  C        -1.7233375599        8.8627550942       27.7259132705
  C        -1.0116849165       11.2468793595       30.1865683396
  C        -1.2085504936       12.5934027657       30.2813077550
  H         6.9619351320       13.5597313920       21.4664678952
  H         6.3465813927       12.4107277864       22.5281122803
  C         5.3029940523       12.5924483793       20.6825384134
  S         2.3702920950        5.5412445494       19.5051015993
  N         2.8808407414        6.0664227096       18.0904413204
  C         3.1312209349        8.2565883225       17.0230106668
  H         3.4487450693       10.4380384834       16.5064246335
  H         0.9556475766        8.1869078643       27.8989264521
  H         0.3267093882        8.1260264858       29.2630765843
  C         1.8603725103        9.6528849991       29.1052877794
  H        -1.7211032784        8.0885854927       26.9456265489
  H        -1.9126607356        8.3840381904       28.6825090097
  C        -2.8939950104        9.7988076398       27.4265947378
  H        -1.3366617243       10.5064493546       30.9228283589
  C        -1.5329266580       13.2534372352       31.5658612040
  H         4.2402250349       12.5840110124       20.8301349808
  H         5.4882617896       11.4956880648       20.5391129133
  C         5.4436523421       13.3214007514       19.2951530430
  C         3.3918414590        7.5156429924       15.7984090638
  H         2.3289396688       10.2991242732       28.2973632057
  H         1.5679839943       10.2302742650       29.9512713495
  C         3.0081854244        8.7609448199       29.5955108973
  H        -2.7357342276       10.5541127538       26.6741937595
  H        -3.1339783146       10.3442332903       28.3393731623
  C        -4.1286837127        9.0047672805       27.0944956429
  C        -1.6103871187       14.6860854680       31.6641762114
  C        -1.6542469727       12.5147062371       32.8393357670
  H         4.6349967234       13.1692508001       18.6030514984
  H         5.3327166196       14.4733966097       19.4427515415
  C         6.7464394422       12.9827914516       18.5306004370
  H         3.6107762638        6.4757242945       15.8975065798
  C         3.7563868449        7.9093929289       14.5382088640
  H         3.4293540034        8.2131517420       28.7285365357
  H         2.7336784102        7.9540371941       30.3052746904
  C         4.0468319855        9.6900456539       30.1710481196
  H        -3.8608245225        8.3042372757       26.2943669724
  H        -4.4970701638        8.3876460112       27.8591032850
  C        -5.1901403646        9.9550544928       26.7087641730
  N        -1.4082557006       15.5974315135       30.6226049957
  C        -1.9253669911       15.3578262600       32.8206865786
  C        -1.9436328054       13.2106448349       34.0042297533
  H        -1.4864325271       11.4718267411       32.8020947546
  H         7.4487800131       12.4035432780       19.1598080191
  H         6.5155156773       12.3294078706       17.6509711891
  H         7.2429094928       13.8811186613       18.1901320168
  S         3.8595741164        9.5635028147       14.0889115533
  C         3.7286920344        6.9229681634       13.4045506276
  H         3.8991070907       10.7213458759       29.7135234177
  H         3.8322475959        9.8108918733       31.2087153784
  C         5.4109896695        9.0332448398       30.1233654270
  H        -4.7984416070       10.6147233115       25.9574227556
  H        -5.6325877239       10.5741057169       27.5166767995
  C        -6.3471077770        9.2603096278       26.0743148809
  S        -1.4565582300       17.1054594215       31.2198086023
  N        -1.9164011406       16.7630937336       32.6574958068
  C        -2.0757483583       14.6606669702       34.0311649486
  H        -2.0609659505       12.6294411859       34.8750954881
  C         4.0238764941        8.9443344616       12.4392331793
  N         3.9268280949        7.6060534331       12.2497205418
  O         3.6060641453        5.6667110754       13.5013684867
  H         6.1963289088        9.6828055090       30.4427360509
  H         5.5401990565        8.9209207380       29.0044868458
  C         5.5539169597        7.7360276272       30.9002768877
  H        -5.8724534884        8.5916312716       25.3251351436
  H        -6.8326283076        8.5390007657       26.7265979363
  C        -7.4458812847       10.1575960334       25.5302136225
  C        -2.4224912142       15.4287837000       35.1673539052
  S         4.5410985888       10.0349679317       11.1360869919
  C         4.0535611413        6.9063114455       10.9428567962
  H         6.0510878709        7.8553532528       31.8349179371
  H         4.5731273138        7.2287269872       31.1487101763
  C         6.3979957954        6.7770069692       30.0218124221
  H        -7.1628070691       10.5235739636       24.5917279363
  H        -7.4460772593       11.0195014597       26.1333426497
  C        -8.7693179166        9.5469034503       25.3385842776
  H        -2.1604865542       16.4873198103       35.0529786142
  C        -3.0304119906       15.1132113936       36.3994474757
  H         4.7656935890        7.4431832940       10.3637972822
  H         4.3844479473        5.8498762371       10.9137532080
  C         2.8198934330        7.0675971797        9.9581520194
  H         7.3182346323        7.2852234615       30.0799918494
  H         5.9934134374        6.7506343056       29.0431295875
  C         6.6266333725        5.4020641656       30.6508479820
  H        -9.2237091648        9.9701113952       24.4384740391
  H        -8.7516722807        8.4708142172       25.2564841394
  C        -9.7733594706        9.8633023694       26.3849661344
  S        -3.6609482124       13.5797999890       36.8629707000
  C        -3.1726913332       16.2391345663       37.4425291962
  H         2.3503584974        6.1544623883        9.6061646811
  H         2.0722236219        7.5785043267       10.4926117836
  H         3.1450178940        7.7510711855        9.1711872874
  H         7.4938845602        5.0319681707       30.1737035445
  H         5.8850790396        4.6200835394       30.5647964116
  H         6.7882541420        5.4644945446       31.7031859905
  H       -10.6944656102        9.5287974926       25.9849201798
  H        -9.8795666559       10.9058583487       26.5321022141
  H        -9.3854197317        9.4108288408       27.3060277918
  C        -3.9952625333       14.3652595008       38.4642654626
  N        -3.8577776868       15.7000878085       38.5028370000
  O        -2.8655757681       17.4116918884       37.2048410282
  S        -4.6167559395       13.4722297855       39.8517233710
  C        -4.0036814954       16.5271344210       39.6815087017
  H        -4.1241684947       17.5755313667       39.4711542127
  H        -4.8951285079       16.2089370526       40.2426184966
  C        -2.6962401303       16.3665603001       40.5124175024
  H        -2.4721162825       17.3444134166       40.9391211756
  H        -2.9245628564       15.7349497603       41.4204930163
  H        -1.8622073562       15.9200755838       40.0194885352
  H         7.7101856983       11.3520940221        3.4849110099
  C         8.1038790860       10.3619664071        3.5098497120
  H         7.2784473828        9.7175312063        3.6506190306
  C         8.9292592849       10.0815313088        4.7450988126
  C         8.8476525730       10.0429627684        2.1653837650
  C         8.0821720159       10.4771149662        5.9345929731
  H         9.0675618173        8.9781767697        4.7606837368
  H         9.8391648947       10.6726313799        4.8051837285
  H         9.0800916231       11.0348436102        1.6729855497
  H         8.2522842481        9.4476832681        1.4753871493
  H         9.8946416311        9.7578117507        2.3038364951
  C         7.1215348705        9.3428492993        6.3832778374
  H         8.8528799242       10.6012076748        6.6695222299
  H         7.6353426573       11.4964911232        5.7893007705
  C         6.4319858255        9.5824212867        7.7932361769
  H         7.5790493127        8.3022190836        6.3579152099
  H         6.3648144584        9.1064074443        5.6329412117
  C         5.2035959865       10.5467061426        7.6739092906
  H         7.1309482797       10.0655633535        8.5024251749
  H         6.1652742261        8.6173656009        8.2696030854
  C         3.9739227705        9.8436147687        6.9722616826
  H         4.8422366438       10.9685130922        8.6626560622
  H         5.4681206639       11.3918889310        7.0741543943
  C         2.6649609792       10.7382468560        6.7921176296
  H         3.7725094278        8.9031403238        7.4352092472
  H         4.2143923106        9.5003641906        5.9713124977
  C         3.0001384358       12.1338350060        6.1468146151
  C         2.2330136854       11.3678253648        8.0536471171
  C         1.5139462416       10.0593571218        6.0643978041
  C         2.8725194006       13.1940447623        7.0496230885
  C         3.5901077086       12.5732278600        4.9757789502
  C         2.3970132653       12.7194343694        8.2450610482
  C         1.6729333544       10.7359892473        9.1981912727
  H         1.7867201769        9.0296435696        5.7623953412
  H         0.6843318891        9.9509996231        6.8051393446
  C         0.8373178145       10.8486632652        4.9504884636
  S         3.2839662768       14.7072597460        6.4564423957
  C         3.7045831173       13.9507158651        4.9405859014
  H         4.0171006563       11.8557640637        4.2979660053
  C         2.0526802929       13.3081764628        9.4462929016
  H         1.5546374242        9.6701897628        9.1140320478
  C         1.4390482080       11.2979093322       10.4186724508
  H         1.5531488269       11.0064777343        4.1896450228
  H         0.5112511158       11.7817907624        5.2573565647
  C        -0.2870827043       10.0268232715        4.3491013533
  C         4.2777068400       14.7198694839        3.7252513788
  C         1.5964649033       12.6286685899       10.5913067106
  H         2.0263417528       14.3968838558        9.4675675894
  C         1.0220875968       10.8464709690       11.6412115804
  H        -0.9575588287        9.7084888670        5.1273697787
  H         0.0482633530        9.1338728311        3.8436107640
  C        -1.1214966263       10.7980906529        3.3691028738
  C         4.1374844580       16.1033142536        3.4317611384
  C         4.7652777236       13.9539244470        2.6033350906
  C         1.1939672786       13.2903917100       11.8941645735
  C         0.9937473723       11.9178701583       12.5515701069
  S         0.6132226036        9.2696014900       12.2753470720
  H        -0.4230531763       11.6065905188        3.0118722717
  H        -1.9102432213       11.3472720389        3.9072441174
  C        -1.8352505153       10.0386163403        2.2568787283
  N         3.8166958891       17.0014002041        4.4227456315
  C         4.6213190761       16.6960487940        2.2602009677
  C         4.9857897262       14.4737657019        1.3427571140
  H         4.8755333986       12.8971451803        2.7280298069
  C        -0.0581937151       14.1291829885       11.7081076664
  C         2.3507361636       14.1331275615       12.4586462785
  C         0.4968957619       11.4316242761       13.7648090048
  C         0.3221252188       10.0586124120       13.7973581016
  H        -2.4715384907        9.2957801931        2.7112475011
  H        -2.4590055996       10.7558829571        1.6604740717
  C        -0.9072958423        9.2338675231        1.2324107857
  S         3.8520499327       18.4826613188        3.7737381606
  N         4.5402813406       18.0917384912        2.3109606442
  C         5.0487911038       15.9093967013        1.1259665734
  H         5.1918440572       13.8433704063        0.5214239453
  H         0.4290986558       15.0407041562       11.3596003244
  H        -0.5419860461       14.4157558906       12.6894492148
  C        -1.1638783412       13.4295013820       10.9648106506
  H         2.8928850660       14.6757682456       11.6665063539
  H         1.9849039519       14.9479889405       13.1680432191
  C         3.3410455165       13.3787849067       13.2216009458
  H         0.4223081702       12.1586245419       14.5647856994
  C        -0.0350570182        9.2872018641       15.0985561636
  H        -1.3827493014        8.3878398776        0.7001265195
  H        -0.0208514971        8.7251889445        1.7408473018
  C        -0.1391045363       10.2316954665        0.2309629358
  C         5.3593276265       16.6212885568       -0.0507574258
  H        -0.8591041077       12.9778185668       10.0417576705
  H        -1.5645339000       12.7120285252       11.6069427101
  C        -2.3735510343       14.3936280915       10.6549568303
  H         3.8174434175       12.6606041990       12.5014794639
  H         2.8975729506       12.8465304943       14.1196181295
  C         4.3943725380       14.3414386369       13.8216918849
  C         0.0203076465        7.8938462015       15.2657121373
  C        -0.4569436956       10.0548241761       16.2857222624
  H        -0.2862865237       11.1845593799        0.7420695325
  H         0.8965796613        9.9220326061        0.1526657003
  C        -0.6295393818       10.3184514891       -1.2071690625
  H         5.3293269333       17.6557401182        0.0772979715
  C         5.6057120998       16.2030239168       -1.3398218037
  H        -2.1140124330       15.2044228840        9.9775024818
  H        -2.6165494691       14.8392768251       11.5940740262
  C        -3.5353397073       13.5128197390       10.2145218842
  H         4.9171073332       14.8030270556       13.0188766957
  H         4.0406380373       15.1608175103       14.3896817676
  C         5.3123755287       13.5581001511       14.7581245892
  N         0.3882164191        6.9841674251       14.2429049091
  C        -0.1878054891        7.3039241900       16.4900401933
  C        -0.6989371136        9.4498366609       17.5262740997
  H        -0.6048101777       11.1670336511       16.1777458110
  H         0.1628783877       10.5599845202       -1.9931236860
  H        -1.3229373094       11.1781929703       -1.1304870715
  H        -1.0990669240        9.4067149126       -1.4481083537
  S         5.8580333844       14.5849834302       -1.8342140032
  C         5.7834473593       17.2534782606       -2.3570066114
  H        -3.1072422421       12.8596070364        9.4367144865
  H        -3.8181863907       12.8336860002       11.0392285919
  C        -4.7186011052       14.2825529865        9.7095415606
  H         5.4932646470       12.5007394832       14.4141505148
  H         4.8850473108       13.6543321763       15.7698651434
  C         6.8098168674       14.0351495734       14.7287922667
  S         0.5711921277        5.5010004738       14.9695649167
  N         0.1821739195        5.9810251200       16.4741045414
  C        -0.4917126074        7.9702341246       17.6578395345
  H        -0.8351410602       10.0052853055       18.4052383380
  C         5.9418221950       15.3315952853       -3.4392683228
  N         6.0179008962       16.6765879667       -3.5089876415
  O         5.5291551329       18.4208369469       -2.1481048457
  H        -5.2624715802       14.7287929806       10.5482341030
  H        -4.5366537543       15.1089509689        9.0160429037
  C        -5.6339932355       13.3484254026        8.9402016987
  H         7.4058888985       13.1937950574       15.0846470012
  H         6.9935897381       14.0237464097       13.6813390829
  C         7.0607857587       15.3538389431       15.3781174528
  C        -0.7351680184        7.1644667685       18.8928740810
  S         6.2749802496       14.3746199842       -4.9123816329
  C         6.0785895419       17.3670156735       -4.7390098907
  H        -5.1281844645       13.0563969228        8.0009630511
  H        -5.8883037319       12.4730524043        9.4755453686
  C        -6.9877875698       13.9853343612        8.7914237982
  H         7.3944102561       15.2435378490       16.3632118341
  H         6.1611879180       15.9844428179       15.5570063625
  C         8.0241961859       16.1883838753       14.4836721476
  H        -0.3560511244        6.0825633572       18.9279564749
  C        -1.1640914375        7.5570366562       20.0913571166
  H         6.8238162808       17.0698360191       -5.4663577101
  H         6.1955158656       18.4035440616       -4.4902352499
  C         4.6364895056       17.3431690057       -5.3046936053
  H        -7.3458608063       13.8160044787        7.7621528963
  H        -6.8147917185       15.1012479130        8.9156205137
  C        -8.0445884171       13.5722684593        9.8022647138
  H         8.9962169658       15.6496263562       14.4493035463
  H         7.5778140220       16.2817336162       13.5074002712
  C         8.3203963391       17.5600289487       15.1582469277
  S        -1.7135804132        9.1222067162       20.5133967904
  C        -1.3296684371        6.5361180876       21.1950032843
  H         4.6233731849       17.6159350991       -6.3515030072
  H         4.1084190720       18.0619370748       -4.6868794054
  H         4.0446775221       16.4339645760       -5.2087114563
  H        -8.6424513515       12.7859396586        9.3096176750
  H        -7.6602312093       13.0976804842       10.6875985359
  H        -8.7040404661       14.5037496694       10.0258654006
  H         9.0110034161       18.1225727567       14.4790806669
  H         7.4390087923       18.1414680496       15.1683288367
  H         8.7340148856       17.5477951630       16.1549229277
  C        -1.9482670952        8.4177492746       22.1457958164
  N        -1.9050968843        7.0815675604       22.2525432060
  O        -0.9700019490        5.3641974552       21.0437084152
  S        -2.4860916657        9.3089928738       23.6030059157
  C        -2.0388537175        6.3583543253       23.4855013317
  H        -2.2885525035        5.3740908552       23.1667024491
  H        -2.8619948677        6.6535025639       24.1168897899
  C        -0.6691417860        6.3467729460       24.1955146452
  H        -0.8506261880        6.5465782474       25.2200139316
  H         0.0812317471        7.1495644066       23.9728460900
  H        -0.1408767912        5.3574364768       24.0940920034
