352
i =
  H        -3.2328919463       14.8027778449       16.7163299307
  C        -3.1497482541       13.6813955525       16.6177304438
  H        -4.2143218248       13.4576828979       16.8373963666
  C        -2.1873553519       13.2494453354       17.7012939397
  C        -2.7942990560       13.2541192979       15.1722968673
  C        -2.4958165835       13.8199847431       19.0919465192
  H        -2.2619386620       12.1257994606       17.6467650439
  H        -1.1739037530       13.4638901520       17.4064762829
  H        -3.1235515742       12.2381670680       14.8996635747
  H        -3.3288660694       14.0433397766       14.6309702617
  H        -1.7516663764       13.1795666356       14.9924516868
  C        -2.0173304706       12.8811744753       20.1336135992
  H        -3.5383761314       14.0601343963       19.1747619179
  H        -1.9767774263       14.7904205093       19.2983715183
  C        -2.3920902282       13.2989260871       21.5167990399
  H        -2.4235414539       11.8857791323       19.9190543586
  H        -0.9316475079       12.7427515681       20.1366631463
  C        -1.3387314142       12.7948500913       22.5749690873
  H        -3.2843406093       12.8170309507       21.8940630233
  H        -2.5503894233       14.3726636736       21.5643165133
  C        -0.0962410238       13.6587513241       22.6775109282
  H        -1.8679268375       12.8490521511       23.5254133599
  H        -1.1191340004       11.7783235172       22.2892768099
  C         1.0186076077       12.8977842936       23.4068447729
  H         0.2511777163       14.0021989360       21.6438096501
  H        -0.2990961922       14.5558380020       23.2309836536
  C         1.4756263332       11.5618768437       22.7460390061
  C         0.5599739846       12.2300057877       24.6312796595
  C         2.2339065988       13.8751513234       23.6961646609
  C         1.0961041890       10.4683378892       23.4771766222
  C         1.9039351996       11.1990542953       21.4732355084
  C         0.5864181543       10.8582997095       24.7131034395
  C        -0.0783287765       12.8549835945       25.7228359856
  H         2.4834301225       14.3094054578       22.7665759337
  H         2.0056983915       14.6201843102       24.3883779877
  C         3.4626604003       13.1071019809       24.1374975117
  S         1.6365022912        8.9391047617       22.7015117852
  C         1.9834529657        9.8179886762       21.2754298667
  H         1.9889727221       11.9640187553       20.6914737499
  C         0.1666299792       10.2686934673       25.8713458518
  H        -0.0972273892       13.9172262865       25.5823582177
  C        -0.3870261851       12.2329506879       26.9250745672
  H         3.7168382479       12.3346115173       23.4178375100
  H         3.2480447840       12.4679511430       25.0184496863
  C         4.7120414502       13.9948694240       24.4515222898
  C         2.3861608921        9.2041774389       19.9829470295
  C        -0.3843856870       10.9034210944       27.0093210430
  H         0.3178495984        9.1853650132       25.9755108483
  C        -0.8419234244       12.6915578650       28.1157973395
  H         5.4635653993       13.5065083177       25.0178234303
  H         4.2251097170       14.7427572198       25.0702467117
  C         5.4252794432       14.4566567436       23.2988188916
  C         2.4749691601        7.8290274278       19.7281777789
  C         2.8163814033       10.1348561942       18.9154473963
  C        -0.8219600747       10.3410011207       28.3550912096
  C        -1.1342930972       11.6331869155       28.9713869712
  S        -1.0107452520       14.3091126171       28.7457011671
  H         6.2239139394       15.0283746060       23.6813199778
  H         4.7721088677       15.0799170955       22.7039970707
  C         6.2157350043       13.3663683267       22.5293311340
  N         2.2096900561        6.7598867770       20.6245458367
  C         2.8126201202        7.3599303809       18.4300626334
  C         3.2680755822        9.6568616493       17.6774693076
  H         3.1679338736       11.1098191661       19.1861249930
  C         0.1874487764        9.6485665728       29.2217394178
  C        -2.1598980254        9.4315494941       28.2471937886
  C        -1.5820314390       12.1435003389       30.1703263033
  C        -1.4333558198       13.4830508126       30.2382281952
  H         7.1746817051       13.4728172131       22.8621023475
  H         5.9050728035       12.3911159232       22.8815048286
  C         6.0064771462       13.6106553846       21.0166245205
  S         2.3945561951        5.3679106700       19.8869459374
  N         2.6997457607        5.9173525983       18.3791072338
  C         3.1872956197        8.1881972440       17.3377049749
  H         3.4580052058       10.3646237286       16.9707266407
  H         0.4001831547        8.7327050188       28.7188186991
  H        -0.2843510159        9.5117847981       30.1795823997
  C         1.4633630782       10.4439069434       29.3829248966
  H        -1.8874645007        8.5083896750       27.7659847742
  H        -2.4982235754        9.2646929424       29.3459326375
  C        -3.2625604552       10.2571519756       27.4379185175
  H        -1.7467469155       11.4243684183       30.9440892910
  C        -1.6962431773       14.2586757787       31.5210167575
  H         5.7367872041       14.6238041292       20.7391403246
  H         5.1928063789       12.9221431719       20.7276264396
  C         7.2251151278       13.2407516776       20.1844988275
  C         3.4411975358        7.5562037429       16.0558257081
  H         1.7744193340       10.7212503525       28.3669212054
  H         1.4884909645       11.3588585508       29.9481508860
  C         2.5607625612        9.5900026403       29.9688548817
  H        -2.9010069569       10.5015383842       26.4989577718
  H        -3.4031240176       11.1134314682       28.0805535187
  C        -4.6132298558        9.5008302270       27.2332885246
  C        -1.7325072877       15.6721934003       31.6371852992
  C        -2.1486148265       13.5478769614       32.7494744851
  H         8.0824430065       13.6253983690       20.7008951046
  H         7.3044744718       12.1591669455       19.9504445371
  C         7.1588081932       13.8432637999       18.7851074328
  H         3.1177458002        6.5643694003       15.8984793541
  C         3.6489627286        8.0973918735       14.8038248791
  H         2.7730418418        8.7100946535       29.4212036374
  H         2.1526222297        9.1689878764       30.9054051493
  C         3.8893087372       10.2532523098       30.2712039572
  H        -4.4167663019        8.6252269717       26.6049615163
  H        -5.0329840234        9.1516031986       28.2085344319
  C        -5.4986434577       10.4611543628       26.4405845120
  N        -1.4205413111       16.5935930464       30.6400863608
  C        -2.2023840365       16.3748906467       32.7521224908
  C        -2.4043174326       14.2785080004       33.9391532430
  H        -2.0434698499       12.5036677607       32.6848312568
  H         7.7725847984       14.7326911950       18.6814005276
  H         7.6893870015       13.1626317528       18.0900353170
  H         6.0869624033       14.0282402133       18.4945003460
  S         3.9448869098        9.7926730311       14.4340705868
  C         3.9856173628        7.1270958211       13.6937662918
  H         4.0505132373       11.0741719784       29.5382772601
  H         3.7906009190       10.7622963185       31.1860550537
  C         5.1253282263        9.2719110372       30.4636181446
  H        -4.9424059376       10.7524897697       25.5313085668
  H        -5.5555289785       11.4091676834       26.9634968760
  C        -6.8176261863        9.7455869653       26.0964557312
  S        -1.7416090411       18.0876223779       31.1709411090
  N        -2.1708169585       17.7310278311       32.7251635444
  C        -2.4954123436       15.8059284595       33.9648796879
  H        -2.5137574486       13.7424266234       34.8508993220
  C         4.1955790521        9.1848646461       12.7841810993
  N         4.3447203654        7.8798999848       12.6333692906
  O         3.8137692698        5.9357060295       13.6914470267
  H         5.6922783821        9.6617576308       31.3321712281
  H         5.7115160492        9.4952416895       29.5893736491
  C         4.8893055767        7.7635813410       30.3546349298
  H        -6.6111943179        8.8011239759       25.5774039769
  H        -7.4627031823        9.5686637246       27.0610769577
  C        -7.7303684174       10.5769185288       25.1380044158
  C        -2.6971065466       16.5941714229       35.1360483705
  S         4.6455777838       10.2313220679       11.4417565924
  C         4.7313650327        7.3441704292       11.3068618851
  H         3.9815145487        7.5167631016       30.9417281228
  H         4.5666431989        7.4457518937       29.4060586661
  C         6.0186881117        6.9276992453       30.8633473473
  H        -7.0976542515       10.6302253165       24.2978339843
  H        -7.9521974922       11.4889922615       25.6658110590
  C        -9.0090899244        9.8462146832       24.7122811848
  H        -2.4137900685       17.5889553806       35.0964953060
  C        -3.1657731777       16.2837484766       36.4064525175
  H         5.4602862107        7.9478674968       10.7601539227
  H         5.2980122802        6.4260856862       11.4691936451
  C         3.4879269234        6.9017173389       10.5115496356
  H         5.6904143021        5.9966236352       31.2830729296
  H         6.4728060562        7.4340794587       31.7189953464
  C         6.9700606717        6.6540876092       29.7988939575
  H        -9.1830813776       10.3173989343       23.7416337918
  H        -8.8145990757        8.7918576788       24.4149857646
  C       -10.0428569892        9.9398192768       25.7776143612
  S        -3.6371745307       14.7116757612       36.9524699146
  C        -3.2913510352       17.4353834563       37.2984297351
  H         3.4426033117        7.4024072065        9.5273073068
  H         3.5105812829        5.7488631038       10.4073955330
  H         2.5548206398        7.1409516052       11.0339545719
  H         7.9232659405        6.5193426305       30.2262392621
  H         7.0254209369        7.4251268510       29.0963176587
  H         6.7868108329        5.8650771353       29.1149006714
  H        -9.6400878511        9.3060407003       26.5476402840
  H       -10.9420475298        9.3622322549       25.6361606663
  H       -10.1561007984       10.9563619456       26.1965624369
  C        -3.9351602212       15.5569886047       38.4981046727
  N        -3.7730184876       16.8780639941       38.4772442894
  O        -2.8319923222       18.5543621782       37.1256456524
  S        -4.5906130753       14.8057877911       39.9555495433
  C        -3.6884895293       17.6430183472       39.7579617314
  H        -3.9591904959       18.6644479453       39.4957570680
  H        -4.4471306512       17.3861594857       40.4570217695
  C        -2.2797359915       17.5276147863       40.3508852255
  H        -2.0113905827       16.5018209030       40.6540578715
  H        -1.4483531935       17.9142570928       39.6614621784
  H        -2.1077464421       18.0860971866       41.2838649529
  H         7.3115113221       10.9649769842        4.0216565866
  C         7.9124253494       10.1018816173        4.0532069033
  H         7.1421929785        9.3476645793        4.1137171569
  C         8.9017438880       10.0050928409        5.2367936934
  C         8.5815525066        9.9022855932        2.7256693668
  C         8.1836608582       10.6344420175        6.5474210029
  H         9.1884807856        8.9720450277        5.3303985772
  H         9.7750149080       10.6260454257        5.0131726699
  H         7.8772308562        9.5165359141        1.9878528512
  H         9.4145774325        9.2792778210        2.9391459284
  H         8.9895912678       10.8148243920        2.2999873974
  C         7.5033352338        9.4475116228        7.2649748496
  H         8.8188470631       11.2586982197        7.1941521299
  H         7.4775319802       11.3933456338        6.2340888030
  C         6.5338943369        9.9138476270        8.4084702737
  H         8.2719835667        8.6766292340        7.5014583360
  H         6.8527410101        8.8734668707        6.6364291106
  C         5.2737685128       10.6656230308        7.9558496630
  H         7.0198482276       10.6135439750        9.0724575618
  H         6.2286547271        9.0922057908        9.0263960442
  C         4.0957383381        9.8523312085        7.4672073631
  H         5.0262180855       11.2884184544        8.8188249153
  H         5.6029474299       11.4527436390        7.3108198517
  C         2.8483595589       10.6877714054        7.1654424292
  H         3.8766247407        9.0796738572        8.1645781711
  H         4.3471045121        9.3842638705        6.5407191471
  C         3.1292045176       11.9775302533        6.4411857460
  C         2.3458308374       11.3952122603        8.3751154385
  C         1.7153468479        9.9313140238        6.4181888372
  C         2.8796997582       13.1041162692        7.2250098115
  C         3.5132209929       12.3462388506        5.1380397346
  C         2.3791002862       12.7636691042        8.4279930726
  C         1.7989456035       10.6903322788        9.4712699167
  H         2.2834613527        9.4873769532        5.5664347399
  H         1.3779486430        8.9983867404        6.9904281983
  C         0.4582458529       10.7830330890        6.1234568011
  S         3.1628818408       14.5815408570        6.4169962190
  C         3.6113454942       13.7037888504        5.0176485804
  H         3.7342424436       11.6411594576        4.3303082304
  C         1.8544049242       13.3383736064        9.5383382283
  H         1.6936688365        9.6291002482        9.3568188240
  C         1.3682876429       11.2762640090       10.5824907353
  H         0.8062544893       11.7158385209        5.7332391182
  H        -0.1458796493       11.2151624942        6.9511337458
  C        -0.4750153942       10.2295745848        5.0538427203
  C         4.2040557842       14.4240280476        3.8167590176
  C         1.3565610060       12.6755612477       10.6786269674
  H         1.8534505525       14.3726000785        9.5849594202
  C         0.9057469823       10.8384770138       11.7894134222
  H        -1.3633836460       10.8285352504        5.0902609843
  H        -0.7658056463        9.2201899081        5.3808365850
  C         0.0766611862       10.3284336052        3.6517889548
  C         4.1723510268       15.8172877142        3.5340051273
  C         4.5570015818       13.5609096032        2.6816763550
  C         0.7852650666       13.3656686968       11.8945983057
  C         0.6208802342       11.9624283037       12.6018011740
  S         0.8700661754        9.3383463265       12.5705483452
  H         0.8775404650        9.6995678159        3.4545760835
  H         0.4614266080       11.2880766016        3.4976574041
  C        -1.0983635594       10.2450870367        2.6273963676
  N         3.9486035043       16.8164117082        4.4922665226
  C         4.4805702528       16.3331365390        2.3162265132
  C         4.9384028492       14.0563014080        1.4367158486
  H         4.9199587615       12.4909984210        2.9294822295
  C        -0.6147465639       14.0090075705       11.6757928719
  C         1.7821065522       14.3559027626       12.6486840116
  C         0.2012103906       11.4125918317       13.8432603042
  C         0.3597412016       10.0800952063       14.0378381240
  H        -1.7302505283        9.4518323597        2.8380394971
  H        -1.7401669804       11.1191902746        2.7903353438
  C        -0.5604037075       10.4150974440        1.2259488872
  S         3.8465548250       18.2510972749        3.7109930794
  N         4.4189675011       17.7396721343        2.2371461397
  C         4.8324466930       15.5430790211        1.1879451491
  H         5.3742266251       13.4429794600        0.6720722889
  H        -0.5661700995       14.7017491779       10.8199620503
  H        -0.9025752073       14.4238375684       12.5994636828
  C        -1.7226226712       13.0136757014       11.3443568024
  H         2.3394702680       15.1052479821       11.9678081784
  H         1.2255033774       15.0316395687       13.3382641018
  C         3.0822322716       13.6058373484       13.1592245482
  H        -0.1177774218       12.1723832250       14.5395288740
  C         0.0394752599        9.3692983967       15.3852139276
  H         0.4344305716        9.9643888317        1.1911497096
  H        -0.4243992427       11.5149562263        1.1222860611
  C        -1.4820086705        9.9224463486        0.0848727453
  C         5.1286689746       16.1578370341       -0.0590299920
  H        -1.3912446344       12.3837663167       10.5206512419
  H        -1.8342224564       12.4746710424       12.3282203959
  C        -3.0067020462       13.6878904458       10.9634116085
  H         3.5051215378       13.1000188982       12.2942430091
  H         2.8115753471       12.8572795824       13.8481114575
  C         4.0094346729       14.5884611381       13.8201256714
  C         0.1504536833        7.9570890308       15.5861715398
  C        -0.2211530365       10.1562319714       16.6038222872
  H        -1.6963515144        8.8494623988        0.2893238142
  H        -2.5123786463       10.4425105511        0.0643744146
  C        -0.9258606782       10.0501143271       -1.2838908868
  H         5.0104119491       17.2530294988       -0.0853190949
  C         5.4680197369       15.7177311592       -1.3234271855
  H        -2.8419706660       14.4031996082       10.2044542770
  H        -3.2800776222       14.2135670614       11.8625346916
  C        -4.1047825321       12.6864433653       10.6020668498
  H         4.2317728962       15.4282727923       13.1502750764
  H         3.3663896516       15.0385060554       14.5752676871
  C         5.2902211388       13.9890359727       14.4858043600
  N         0.5371782725        7.0413358785       14.6741332886
  C        -0.2174792452        7.3723453425       16.7745413527
  C        -0.5298794854        9.5616652755       17.9022357940
  H         0.0331044585       11.2029584134       16.5946106388
  H        -1.6270458103        9.7871523148       -2.0260110225
  H        -0.0802848531        9.3836962770       -1.3325662914
  H        -0.4703954446       10.9667823962       -1.4081575646
  S         5.6105145565       14.0561201049       -1.7685126788
  C         5.5900138646       16.7438246051       -2.4714918598
  H        -4.1448051571       12.4543056567        9.5636499184
  H        -3.8359809014       11.8109821440       11.2028125801
  C        -5.3729592401       13.4037644836       11.0053852655
  H         5.3699790181       12.9355113789       14.4625384840
  H         5.3974932709       14.2477610895       15.4992277157
  C         6.6104637937       14.5589220231       13.9069208835
  S         0.4933401797        5.5685226770       15.3288608945
  N        -0.1375397465        5.9883923495       16.7389788073
  C        -0.6175098020        8.0617636882       17.9417139387
  H        -0.7202603424       10.1909447587       18.7791469102
  C         5.7218303176       14.6546185557       -3.4537310611
  N         5.8833597304       16.0124829167       -3.5705032974
  O         5.4061340204       17.9433040554       -2.3298088362
  H        -5.4741248795       13.3500917982       12.1304739725
  H        -5.2290595391       14.4374211213       10.6418066344
  C        -6.5108651699       12.6482874293       10.3426481460
  H         7.4116090419       13.9911664134       14.3314118780
  H         6.5489065748       14.3392388537       12.8605353654
  C         6.7954767391       16.0468572451       14.0079441468
  C        -1.0352258740        7.1987363968       19.0638613763
  S         6.0547639927       13.6509565668       -4.8050921517
  C         5.8988121717       16.7538437316       -4.8016751119
  H        -6.1280269209       11.7249168580       10.0193078571
  H        -7.2493056201       12.3452907551       11.1147210717
  C        -7.0418896259       13.4443217014        9.1557272997
  H         5.9775578442       16.5921228012       13.5797744479
  H         7.6103366014       16.3145727631       13.3492536576
  C         7.1361641777       16.5922479439       15.3965957902
  H        -0.8185831627        6.1274805169       19.1068370952
  C        -1.4351127562        7.6653124568       20.3067170917
  H         6.5832910048       16.3180000076       -5.4654810106
  H         6.2146111220       17.7884226617       -4.6073632872
  C         4.5060447863       16.7390641892       -5.4117927940
  H        -7.3959684417       12.9438969524        8.2672753873
  H        -6.1425509928       13.8934782553        8.7056676982
  C        -8.1573850882       14.3440426864        9.4767881066
  H         6.6378261083       17.5507356915       15.5994011847
  H         7.0489096140       15.8369953419       16.1478226701
  C         8.6240076769       17.0564022001       15.4342488937
  S        -2.0397220100        9.1710545438       20.7241282292
  C        -1.6319763252        6.6389130947       21.3967884275
  H         4.3425333650       17.6809579529       -5.8417457450
  H         3.6373115406       16.5669015222       -4.7236705989
  H         4.5128109813       16.0666328150       -6.3275222004
  H        -9.0390033435       13.7413862704        9.7867689825
  H        -7.9338531420       14.8800107652       10.4546403705
  H        -8.4639004389       15.0604325435        8.7733944726
  H         8.6974934613       18.1300174601       15.7710510281
  H         9.0651827085       16.5385549145       16.2956249291
  H         9.2976041323       16.9288588522       14.6083817626
  C        -2.2493449649        8.5855241868       22.3323889396
  N        -2.1086543031        7.2453979715       22.4967044287
  O        -1.3941041477        5.4148507450       21.2841583203
  S        -2.8686573677        9.4680149835       23.7754309012
  C        -2.2548204709        6.5427263715       23.7021557310
  H        -2.3228514790        5.5001956404       23.4387000163
  H        -3.1416397752        6.8431589847       24.3156216221
  C        -0.9564529947        6.6943564344       24.4686363700
  H        -0.9263458330        7.5466170952       25.1252885651
  H        -0.1102638172        6.9353116551       23.8966406963
  H        -0.7817158095        5.8402672200       25.0141962619
