352
i =
  H        -3.6930835431       14.6245830677       16.3533561598
  C        -3.3488643037       13.6287852183       16.1307305448
  H        -4.2528334048       13.1161921636       16.4109008119
  C        -2.1640050270       13.3909628779       17.0473444088
  C        -2.9514332602       13.5045905493       14.6333405189
  C        -2.5229145421       13.6367926543       18.5248343486
  H        -1.8036610504       12.3674180127       17.0598280093
  H        -1.3239279486       13.9461161361       16.7516384437
  H        -1.8349045246       13.3841884923       14.4383220083
  H        -3.4808913783       12.6873516050       14.2458195781
  H        -3.3288704553       14.3704633679       14.1023861266
  C        -1.3399987797       13.7659267656       19.5270251001
  H        -3.2404090914       12.8781481863       18.7475116839
  H        -3.0441507604       14.5792881982       18.5050838414
  C        -1.8608608054       13.6908953516       20.9958660727
  H        -0.6383552212       12.9257728254       19.2663902089
  H        -0.7810030295       14.6920725108       19.3291290246
  C        -0.8714067727       13.0665205498       21.9349194089
  H        -2.8252331475       13.1314621117       21.0037519339
  H        -2.1126220656       14.7113887700       21.1949203352
  C         0.2781384029       13.9594069246       22.2390652184
  H        -1.5184733544       12.8997940703       22.8091414244
  H        -0.6741347099       12.1348131394       21.4129794536
  C         1.3966111513       13.3486215171       23.0627727525
  H         0.7066302458       14.0818457484       21.2980629396
  H        -0.0066061615       14.9922427735       22.5939422206
  C         1.7250771855       12.0157641175       22.3978651213
  C         0.8782068400       12.5643363108       24.2186628921
  C         2.6407509497       14.3281266894       23.2323145877
  C         1.4508224374       10.8702471487       23.1618868288
  C         2.1527668897       11.6728654903       21.1312739799
  C         0.9104597317       11.2321377515       24.4021786372
  C         0.3772102064       13.2266120705       25.3341186835
  H         2.8278852333       14.8046639597       22.1888595379
  H         2.3625747561       15.1359782244       23.8867162414
  C         3.9054415912       13.6338264790       23.6890269240
  S         1.6555032095        9.3514551961       22.2913982809
  C         2.2172710942       10.2717420092       21.0316372174
  H         2.2133558893       12.4386878262       20.4059328886
  C         0.5196814381       10.6249112340       25.5358403044
  H         0.4587506337       14.3381429696       25.4345888126
  C        -0.1181973845       12.6638229603       26.4651725627
  H         4.2110074996       12.8606289975       23.0522960632
  H         3.6009765795       13.0369453621       24.5478249006
  C         5.0396889306       14.6229889288       23.8758472908
  C         2.6349905951        9.5578658340       19.7730750759
  C        -0.0342025014       11.3347895328       26.5780664697
  H         0.5914086780        9.5756140342       25.6245322328
  C        -0.5779463837       13.0432974404       27.7060731020
  H         5.7173908517       14.2726257149       24.6758079029
  H         4.8601794708       15.5891744930       24.2959299521
  C         5.8619367781       14.8143955653       22.5844069533
  C         2.7073987136        8.1422274895       19.5728075225
  C         3.0779869577       10.4111436294       18.6765468667
  C        -0.4968197525       10.6624017364       27.8128495855
  C        -0.8517890494       11.9860084231       28.4906128044
  S        -0.7882250324       14.5205803385       28.5003290278
  H         6.6278343331       15.6712284971       22.5510762320
  H         5.1557510303       15.2734430099       21.8236644435
  C         6.4801408349       13.5624132400       21.8848369393
  N         2.4296380118        7.1514424528       20.5101506009
  C         2.8676842610        7.5803078736       18.2818150806
  C         3.3959579548        9.8309680801       17.4784169968
  H         3.2515092815       11.5086317224       18.8498519874
  C         0.6410518781        9.8861322475       28.4990841596
  C        -1.7986720291        9.7754064931       27.7061622447
  C        -1.1399462806       12.3258693782       29.8566493768
  C        -1.1344439484       13.6760969834       29.9615533210
  H         7.5928314807       13.5148090409       21.9880817232
  H         6.0834533440       12.6600470247       22.4529730939
  C         6.0930907580       13.3406726352       20.3426680586
  S         2.2624222836        5.7015536632       19.7040409809
  N         2.6801352222        6.1748256269       18.1784647263
  C         3.2797676762        8.4240131907       17.1974357964
  H         3.7250472151       10.5220240425       16.7002446871
  H         0.8946115940        9.0625619290       27.7728575907
  H         0.3789558864        9.4916986473       29.4951410192
  C         1.9579624464       10.5617239979       28.5836270922
  H        -1.5998095359        8.7416029318       27.2705012690
  H        -2.1730285081        9.4210004726       28.5943772579
  C        -3.0849123169       10.5787620991       27.1183702038
  H        -1.2393574153       11.5695188134       30.6344175629
  C        -1.5447129163       14.4476141728       31.2047408162
  H         5.3468734429       14.0819931115       20.1715800718
  H         5.7297637260       12.3661272337       20.2557507804
  C         7.2688987896       13.5413260340       19.3781130409
  C         3.5768483043        7.7940011911       15.9693901475
  H         2.1865191044       10.9217482860       27.6352537513
  H         2.0728593965       11.4163214453       29.2348957361
  C         2.9887867515        9.5427436616       29.1676558404
  H        -2.8508478211       11.1553867223       26.2017431311
  H        -3.3571120572       11.3910752032       27.8250801967
  C        -4.2476961057        9.6447952987       26.8388330502
  C        -1.7130818919       15.8522712263       31.4047350800
  C        -1.7736978800       13.6626746070       32.4439857999
  H         7.7351887814       14.4802151410       19.6543447556
  H         8.0167106523       12.8330250553       19.6415889807
  C         6.9927138447       13.6130225068       17.8988305764
  H         3.6509623221        6.7706695725       15.9630616658
  C         3.8902754548        8.2913377020       14.7434780819
  H         3.1589245250        8.7787542411       28.4106742978
  H         2.4904863080        8.9515496190       29.9698990578
  C         4.2717642664       10.1030828679       29.7272622281
  H        -4.1749776938        9.4212446126       25.8009550055
  H        -4.2044039693        8.7210908843       27.4869011488
  C        -5.5034722505       10.4572116490       27.0631862466
  N        -1.4855193871       16.7651154041       30.4487205394
  C        -2.1748318469       16.4688252056       32.5678347582
  C        -2.2076858028       14.2387572529       33.6056030225
  H        -1.5466302559       12.6179246058       32.4319306694
  H         6.8575296346       14.5949059078       17.4944488057
  H         7.9390011543       13.3344469748       17.4649256665
  H         6.2108206501       12.8789907549       17.5841018887
  S         4.1696263234        9.9823471206       14.2167288785
  C         4.0700629804        7.2713397870       13.7167777387
  H         4.4313031430       11.1224672863       29.3187989819
  H         4.2697130488       10.1092659362       30.8442280437
  C         5.5334986624        9.3171792436       29.2868447218
  H        -5.2807081803       11.4052663403       26.5324106076
  H        -5.6481577089       10.6370061776       28.1436267875
  C        -6.6056868813        9.8015313672       26.3081364299
  S        -1.7036248090       18.3225127363       31.0111225436
  N        -2.2483272608       17.8875592652       32.4834055184
  C        -2.4409296819       15.7187332757       33.7379368781
  H        -2.4182498185       13.6065782100       34.4315290551
  C         4.3338289535        9.3246377536       12.6199450880
  N         4.3012984008        7.9329091458       12.5692297808
  O         3.7896681800        6.0790447239       13.8689122501
  H         6.3700073381       10.0680030229       29.2967253981
  H         5.4967378599        9.0010207548       28.1746056714
  C         6.0120100975        8.2666077687       30.2738560726
  H        -6.2780064957        9.0986336837       25.5077535556
  H        -7.3203688185        9.3380704319       26.9720855923
  C        -7.5152505466       10.7774991344       25.5267100699
  C        -2.8647296388       16.3808277355       34.9329360365
  S         4.8090133787       10.2019061465       11.2002294744
  C         4.3043283784        7.1755000655       11.3074934061
  H         7.0440373137        8.0502642227       30.0662189645
  H         5.7854481993        8.6151886606       31.2546839482
  C         5.4066696852        6.9238713887       30.0844739558
  H        -7.1640930442       11.3001084783       24.6005091559
  H        -7.7131534776       11.5593914686       26.2867754784
  C        -8.8178037849       10.0235866180       25.1130693703
  H        -2.9373004537       17.4082935252       34.8652226884
  C        -3.5085101066       15.8978508925       36.0581262140
  H         4.8955894495        7.7278387528       10.6356277545
  H         4.8385213693        6.2165737124       11.4487731559
  C         2.8628171766        7.0087314349       10.8268376546
  H         5.3577400207        6.5549176460       29.0652465352
  H         4.3685171011        6.9987555526       30.3950709040
  C         6.1988144826        5.9112537770       30.8878529423
  H        -9.0770952732       10.5901544752       24.2342645927
  H        -8.6446273446        8.9816306837       24.7047867338
  C        -9.9526495701       10.0590526628       26.0853025000
  S        -3.9751718963       14.2961679192       36.3403520200
  C        -3.7761126537       16.8342011851       37.2184076761
  H         2.8977966781        7.0630865862        9.7668667748
  H         2.4440216426        6.0327758242       11.0435606229
  H         2.2062641966        7.7443283912       11.2356458238
  H         6.6770408331        6.2568339618       31.7559901968
  H         6.8986907167        5.4074108592       30.2743093131
  H         5.5521193901        5.0676926386       31.1358735051
  H        -9.6979471426        9.3797638814       26.8337828472
  H       -10.9043454362        9.8918680417       25.6339459728
  H       -10.0224525776       11.0436353437       26.5311583294
  C        -4.4972276169       14.7701010498       37.9283478826
  N        -4.3756181691       16.1418450476       38.1496820253
  O        -3.4844927768       18.0465383814       37.2883474412
  S        -5.1691022414       13.7476232811       39.1467967802
  C        -4.6878294256       16.7129422818       39.4346319120
  H        -4.8006274148       17.8356807047       39.4128261003
  H        -5.5682501823       16.2400410020       39.8006397428
  C        -3.5271281449       16.4353764149       40.4259721035
  H        -2.9003154458       17.3281404517       40.6023426285
  H        -3.9145526799       16.2384359724       41.4328003403
  H        -2.8327509748       15.6169541818       40.0744219581
  H         7.5672271101       11.5856298102        3.5098748774
  C         8.3510558819       10.7974779503        3.4765645483
  H         7.7080043959        9.9312709195        3.5282941384
  C         9.1891034441       10.9750124958        4.8137167373
  C         9.1172121771       11.0518009401        2.2482890869
  C         8.3812426849       11.2007705736        6.0601231111
  H         9.9260742151       10.1805570803        5.0138370801
  H         9.7879944829       11.8523921996        4.5620011852
  H         9.4035738624       12.1524641679        2.3125369867
  H         8.5138340647       10.7928861306        1.3630880270
  H        10.0934556595       10.5201333924        2.2837915720
  C         7.6413528431        9.8951453597        6.4726917263
  H         9.1489995637       11.3928081999        6.7219947095
  H         7.6264659541       12.0420878702        5.9491249295
  C         6.8182008621       10.0209369437        7.8205915987
  H         8.4189182422        9.0953527762        6.4766219735
  H         6.8983849572        9.6393611821        5.6594191320
  C         5.6836263169       11.0621443032        7.7239024787
  H         7.5110670759       10.1945431095        8.6526460897
  H         6.4259999732        9.0608147048        8.0568293347
  C         4.4675664929       10.5137077513        7.0771337498
  H         5.3519095424       11.5180486130        8.6900158910
  H         5.9527323220       11.9470067002        7.1690562726
  C         3.3129867291       11.5113608589        6.8287894750
  H         4.1123539014        9.6977964577        7.7025640824
  H         4.6315310265        9.9831079881        6.1563214606
  C         3.6417525505       12.8648838453        6.1720489480
  C         2.7772600540       12.1877960949        8.0208407177
  C         2.2476216024       10.7861244369        5.9825576648
  C         3.2275709352       13.9213490204        6.8862300575
  C         4.2894062326       13.1922395348        5.0498187220
  C         2.7485285183       13.5454036857        8.0932114131
  C         2.2915912210       11.5682426787        9.1875063216
  H         2.7558327042       10.3323065238        5.1149023022
  H         1.7944423661        9.9771500739        6.4846224160
  C         1.0661499708       11.6792369144        5.4920303722
  S         3.4795053726       15.4325709967        6.1574239249
  C         4.1799024486       14.5344943185        4.8624179792
  H         4.6726950678       12.4088442045        4.4292173116
  C         2.2957141487       14.1856927244        9.2597822199
  H         2.2853625655       10.4904335851        9.1248337865
  C         1.8996056492       12.2456174939       10.3264489357
  H         1.3127953155       12.5502562154        4.8835331480
  H         0.4985795084       12.0764210806        6.2949095465
  C         0.1608100826       10.9224080285        4.5541697917
  C         4.5374534725       15.1639698169        3.5533338549
  C         1.8798935987       13.5971798816       10.4618161480
  H         2.2061510292       15.2622777101        9.2662978441
  C         1.4443027374       11.8580746937       11.5373135603
  H        -0.7752749596       11.4548380138        4.4940348341
  H        -0.0293366669        9.8816546367        4.8805982147
  C         0.6814515999       11.1280542288        3.2014807171
  C         4.5560715998       16.5929605205        3.2781007874
  C         4.9937887473       14.2731741845        2.4182874417
  C         1.4064883742       14.2679233902       11.7396320962
  C         1.1785136852       12.9108999640       12.3861383805
  S         0.9964585070       10.3374648744       12.2142682872
  H         1.5986116550       10.6253431814        3.0937133701
  H         0.9484455656       12.1581025873        2.9441775560
  C        -0.1798420150       10.6572738691        2.0494673889
  N         4.3651853838       17.6215199588        4.1933426542
  C         4.9369846177       17.1239343583        2.0578554381
  C         5.4442075502       14.8440375636        1.2162410959
  H         5.1272645047       13.1823959713        2.5147793458
  C         0.0543440579       15.0146268648       11.6102401279
  C         2.4200507351       15.1275196052       12.4830046172
  C         0.8123549915       12.4543869086       13.6892415114
  C         0.6691733704       11.0386164406       13.7467343344
  H        -0.6943265259        9.8166311583        2.4147555573
  H        -0.9803707120       11.4944225314        1.8608657154
  C         0.5384886100       10.2204960634        0.8335369346
  S         4.4161348242       19.1425913719        3.4380408924
  N         4.8336958185       18.4973366136        2.0262783090
  C         5.2953573119       16.2956380413        0.9404913148
  H         5.7283969379       14.1352660044        0.3999948172
  H         0.2101549753       15.8921965998       11.0244324366
  H        -0.3160548310       15.4196139258       12.5667184343
  C        -1.0778921121       14.1180063634       11.1358559694
  H         2.2564756673       16.2120099856       12.2162744146
  H         2.1290810181       15.0446780614       13.5162673835
  C         3.8828536164       14.7143238945       12.3502690421
  H         0.6630829263       13.1346434217       14.5124660955
  C         0.3688151782       10.2437605793       14.9840073783
  H         0.5660037635        9.1626807131        0.6914619718
  H         1.6343900633       10.3723653685        1.0303006949
  C         0.0578610989       10.9346536241       -0.4240580475
  C         5.5996812473       16.8915769653       -0.2826011156
  H        -0.8103021607       13.6081561871       10.2528735579
  H        -1.3195706812       13.3912304830       11.9279889853
  C        -2.3822637833       14.7922818380       10.7801424088
  H         4.2103728993       15.1077777781       11.3657945725
  H         3.8821883564       13.6236425099       12.2702452747
  C         4.7570407599       15.1319610611       13.5456565635
  C         0.3322848319        8.7810904618       15.0182781237
  C         0.2274907038       10.9614658755       16.2716459046
  H         0.0529310348       12.0166841956       -0.2079026875
  H         0.7704490200       10.7508152423       -1.2969289626
  C        -1.2400870862       10.3905927632       -0.9587173756
  H         5.6491186474       18.0057694836       -0.1299599987
  C         5.8775004671       16.4007769594       -1.5315154799
  H        -2.0950010923       15.7971276738       10.6294291357
  H        -2.9664615622       14.9147164172       11.7461279187
  C        -3.2869654786       14.0413261456        9.8151175979
  H         4.2422104632       15.9926370259       13.9667775555
  H         4.8204709412       14.3115680996       14.2780835460
  C         6.1858260811       15.3865959944       13.1209638114
  N         0.6903041638        7.9119787818       14.0110935237
  C         0.1160123976        8.1477358442       16.2091433567
  C        -0.0795595652       10.2626515218       17.4399222314
  H         0.2771053170       12.0927691133       16.3979409961
  H        -1.5951395594       11.1231710456       -1.6725170635
  H        -1.9783472871       10.5187184279       -0.1894653791
  H        -1.0715257104        9.4573592607       -1.4373892876
  S         6.0905606026       14.8033249434       -1.9155531710
  C         5.9692658991       17.4658736437       -2.5537312872
  H        -2.9145533688       14.3183815593        8.8162910724
  H        -3.1325872588       12.9852559510        9.9840229489
  C        -4.7879311362       14.5315105442       10.0587998035
  H         6.2409953597       15.9559314382       12.2262554916
  H         6.7345978138       14.4237969812       12.9486343821
  C         6.8107190988       16.2227571112       14.2963717491
  S         0.3251059118        6.4205861775       14.4311890543
  N         0.0490967060        6.7942463143       15.9923774181
  C        -0.2069226078        8.7520284083       17.4355858180
  H        -0.1857528359       10.8697643433       18.3013571359
  C         6.3353058917       15.5102604063       -3.5859464738
  N         6.3219977759       16.8326438742       -3.6839520979
  O         5.7421459774       18.6548990031       -2.4223504023
  H        -5.2711924739       14.3956546995       11.0597683047
  H        -4.9121180643       15.5932861315        9.9545645992
  C        -5.7358331659       13.9566831993        8.9225248334
  H         6.1932457876       17.1662594039       14.5173248091
  H         6.8001539603       15.7660772779       15.3066595682
  C         8.2295805636       16.7356254708       14.0961098186
  C        -0.5110308924        7.9039941556       18.5571023123
  S         6.6638009990       14.4763942642       -5.0143313882
  C         6.3532585801       17.5547357312       -4.9246683852
  H        -5.2708931347       13.8566497562        7.9690977476
  H        -5.9123089958       12.9482915048        9.1408795034
  C        -7.1419518247       14.5095472127        8.7593527377
  H         8.4768163638       16.3807232963       13.0516044825
  H         8.8162762158       16.2448449363       14.8106105996
  C         8.4749901043       18.2435759310       14.4449283424
  H        -0.4072705900        6.8780340454       18.4043187998
  C        -1.0147749298        8.1462444280       19.8066553675
  H         7.0917898188       17.1797222649       -5.6910917837
  H         6.7374272284       18.5279230890       -4.7926434325
  C         4.9731484997       17.8044130987       -5.6016976097
  H        -7.4697957939       14.0641011951        7.8335326096
  H        -7.1781435072       15.5400531568        8.6869148594
  C        -8.0585392984       14.1767467320        9.9193286179
  H         9.5179040166       18.3665001288       14.3894831472
  H         8.0622456834       18.9365309362       13.7511679054
  C         8.1117277840       18.5916910509       15.9041637741
  S        -1.4796384676        9.6805488993       20.3859591437
  C        -1.0976825772        7.0054999472       20.8026414244
  H         4.2283761613       17.9078049275       -4.8057640710
  H         4.6397902581       16.9933307563       -6.2943486381
  H         4.9644293444       18.7589505887       -6.1994707560
  H        -7.9733160730       13.1183358042       10.1792804103
  H        -7.5314665858       14.6880000209       10.7551548150
  H        -8.9938421883       14.6655647374        9.7340774225
  H         8.6566784785       17.9868565770       16.6657662055
  H         8.3317935874       19.6383300587       16.0858530871
  H         7.0491860802       18.3818339349       16.0974270282
  C        -1.8486267113        8.8494151958       21.9190959874
  N        -1.6004775391        7.5305931353       21.9146885895
  O        -0.8838281856        5.8379103230       20.5242184072
  S        -2.5417341356        9.5386318880       23.3486639212
  C        -1.8236233780        6.6153005837       23.0671331009
  H        -1.9827735355        5.5839426646       22.7604067206
  H        -2.7485424336        6.7627878025       23.6093538161
  C        -0.4909837530        6.5524769889       23.8238043787
  H        -0.7323990105        7.0381899685       24.7689150607
  H         0.3484139969        7.0350169880       23.2965049938
  H        -0.1830747849        5.5217899648       24.0117096688
