352
i =
  H        -3.2514328105       14.9759950130       16.3036190289
  C        -3.1053469837       13.8750721504       16.3377387515
  H        -4.0978887452       13.5643276721       16.8419748533
  C        -1.9131679619       13.5766727882       17.2511642459
  C        -3.0443359688       13.3354719619       14.8919409594
  C        -2.3561032463       13.5117055728       18.7417393542
  H        -1.4182045143       12.6241477060       17.0297621816
  H        -1.1517645161       14.4237272201       17.0948920037
  H        -1.9868966309       13.4476224279       14.5152893481
  H        -3.3679518364       12.3044087471       14.8205532516
  H        -3.6079875365       13.9082334399       14.2275073478
  C        -1.3590618285       13.2944857247       19.8968306953
  H        -3.0023837658       12.7634712984       18.9508075146
  H        -2.9176540353       14.4193193383       18.9359261810
  C        -2.0414235532       13.4795711597       21.2801936566
  H        -0.7607240769       12.4147646807       19.7800298268
  H        -0.4954631397       14.0836118411       19.7371957321
  C        -1.1733014034       13.1221428581       22.4766723916
  H        -2.9532735123       12.8943713785       21.2636418034
  H        -2.4390359136       14.4965289809       21.3233970200
  C         0.0406375150       14.1038577791       22.6722360564
  H        -1.8002527001       13.0168317158       23.3542881125
  H        -0.8776728173       12.0180507672       22.2945693823
  C         1.2525154559       13.3722726324       23.3442339875
  H         0.4792025394       14.3740539682       21.6615466778
  H        -0.1567016356       14.9896993912       23.3091431454
  C         1.6554039014       12.0410556674       22.6663769327
  C         0.8356442303       12.6735477965       24.6591538080
  C         2.4214784022       14.3563596295       23.4955522703
  C         1.4768049723       10.9804191401       23.5055852560
  C         2.0933716775       11.6196903070       21.3775596780
  C         1.0342417767       11.3346628995       24.7022625043
  C         0.2608471782       13.2667549287       25.7763278747
  H         2.5347265459       14.8932293576       22.5928916273
  H         2.2376010483       15.0900694308       24.2279824586
  C         3.7863780662       13.6608828155       23.7603687474
  S         1.7898175469        9.4344378429       22.8047551422
  C         2.2182891420       10.2481295163       21.3510582174
  H         2.2751837941       12.3320675906       20.5287661610
  C         0.5918844530       10.6636869619       25.8673561796
  H         0.0066826838       14.3110703758       25.6975278240
  C        -0.1084673624       12.5816661952       26.8934020830
  H         4.0895056330       12.9622503645       23.0153521673
  H         3.7602450632       13.0426851452       24.6683344722
  C         4.8312239167       14.6974797651       23.9699709225
  C         2.6686032140        9.5615333351       20.1134824760
  C         0.0915890277       11.2443880984       27.0354165032
  H         0.7699411805        9.5832312976       25.8416506794
  C        -0.6030171557       12.8789124918       28.1404913501
  H         5.5804912808       14.4269469422       24.6989929290
  H         4.3291651092       15.6527745343       24.3722093907
  C         5.4185485499       15.1197621185       22.6674992877
  C         2.7662177276        8.1392725502       19.8746708170
  C         2.8976185339       10.4136646375       18.9381187469
  C        -0.3001730536       10.4996555282       28.2531470375
  C        -0.6587980162       11.7813666789       28.9590285597
  S        -1.1515592589       14.3208204961       28.8378580145
  H         5.7820705058       16.1510822606       22.8467780379
  H         4.6376244529       15.0275146474       21.9219453776
  C         6.6543932176       14.3199726426       22.1818126738
  N         2.4857732656        7.2067574660       20.8263293064
  C         3.0209804691        7.5267375792       18.6545024979
  C         3.1402185053        9.7806463749       17.7099126005
  H         2.6836576697       11.4539317664       18.8591082409
  C         0.8124306765        9.6796994281       28.9187849656
  C        -1.5080999129        9.6001486053       28.0007998587
  C        -1.0817995274       12.0988041004       30.2434960832
  C        -1.4216606820       13.4738838073       30.3269774242
  H         7.4539539448       15.0021852482       21.8305327118
  H         7.0477929403       13.7920673638       22.9968821986
  C         6.3430071025       13.2929630975       21.1662044781
  S         2.5656653948        5.7085415804       20.2230957445
  N         2.8333183269        6.1210560597       18.6818116202
  C         3.1804680826        8.3066944076       17.5562080989
  H         3.4061689599       10.4361436453       16.9081831263
  H         1.2373366003        8.9069872478       28.2454562262
  H         0.3811997668        9.0456561556       29.6704829434
  C         1.9782720019       10.4444392812       29.5423372453
  H        -1.2397808287        8.7163968670       27.4020053907
  H        -1.9605301782        9.2582718616       28.9433755585
  C        -2.7060805013       10.3514589857       27.3294666427
  H        -1.1096823245       11.3725627348       31.0220018293
  C        -1.7831614875       14.1448254541       31.5734044595
  H         5.3454624828       12.8001685576       21.3510214592
  H         6.9860387528       12.4473555837       21.1847507148
  C         6.4225248704       13.8638615203       19.7498722660
  C         3.3800157859        7.6391939744       16.2381945529
  H         2.4769825393       11.1699550464       28.8687870764
  H         1.5858206434       10.9225319255       30.3707822216
  C         3.0839013285        9.4377041561       29.8648042011
  H        -2.4763463128       10.8276860044       26.3723898837
  H        -3.0641042394       11.0756973622       28.0207783890
  C        -3.9933513911        9.4739325360       27.1306878853
  C        -1.8272941231       15.5152790752       31.7761688670
  C        -1.9198109550       13.3096011931       32.8493869017
  H         5.5942766909       13.4152710165       19.1174422447
  H         6.2090682463       14.9096509100       19.7982833434
  C         7.8510254081       13.6991271328       19.1293147839
  H         3.3365105768        6.5443571054       16.2989202494
  C         3.7719816374        8.0690312811       15.0028047613
  H         3.4437135575        8.7924757519       29.0882748333
  H         2.5591451753        8.6244859893       30.4094846701
  C         4.0093633249       10.0345176658       30.8813794226
  H        -3.8886888699        8.8427367049       26.1900750222
  H        -4.4393122236        8.9333286327       27.9929413108
  C        -5.0882329403       10.5063213155       26.7781337439
  N        -1.7256595935       16.5173045624       30.8062424266
  C        -2.1312160347       16.0692415687       32.9939695222
  C        -2.1367921640       13.8719523405       34.0925977413
  H        -1.8857055234       12.2142726277       32.8710562562
  H         8.6626859467       13.8437940129       19.8658253429
  H         7.9341236833       12.7368731932       18.6093816360
  H         8.0499472541       14.4422499557       18.3863463870
  S         4.1055034025        9.6580459255       14.4693139955
  C         3.8179829860        7.0284008818       13.9332420791
  H         3.7425574816       11.0150474183       31.2176673261
  H         3.9904781651        9.4176629342       31.8183315630
  C         5.4681997388        9.9908589902       30.4422902089
  H        -4.7982151413       11.2307809471       26.0213607029
  H        -5.3899801502       10.9735917735       27.7063938995
  C        -6.3228012684        9.7993498186       26.0536383793
  S        -1.7293217608       17.9702069169       31.5214779205
  N        -2.2724377168       17.4768801816       32.9711437471
  C        -2.3876465610       15.3250992796       34.1730157437
  H        -2.2056076999       13.2511653383       34.9450204347
  C         4.3842710093        8.9994918815       12.9057329674
  N         4.3193395201        7.6463306155       12.8414169266
  O         3.5959277319        5.8439855668       14.1567331956
  H         6.0526826092       10.8639536846       30.8226876042
  H         5.5761586532       10.0913218873       29.3772391527
  C         6.2942483932        8.6934389656       30.8555485727
  H        -5.9848432730        9.2865085875       25.1467341553
  H        -6.5324380190        8.9285743482       26.6347672087
  C        -7.6438601606       10.6155724899       25.8471478229
  C        -2.7699032103       16.0942181447       35.2825635468
  S         4.7929365434       10.0535130080       11.4947410289
  C         4.6510255115        6.9036897024       11.6268108076
  H         7.2838562200        8.7286678819       30.4198905566
  H         6.4018742863        8.7966093497       31.9186199162
  C         5.5970134889        7.3971432009       30.5887771858
  H        -7.2204047807       11.5159935179       25.3156524690
  H        -8.1149749640       11.0261325922       26.7919740549
  C        -8.6682205524       10.0263591915       24.9662733707
  H        -2.5440880247       17.0908182579       35.2347386848
  C        -3.0890081367       15.6578013893       36.5318878190
  H         5.4103357421        7.4459688218       11.0374051890
  H         5.0616158723        5.9166846727       11.8111928113
  C         3.4457943120        6.8260303473       10.6887550614
  H         5.4415815563        7.2898501818       29.5220292699
  H         4.6662256207        7.4531969208       31.1312349481
  C         6.2646687199        6.1480332320       31.2181003261
  H        -8.9159438600       10.6645111617       24.1222807170
  H        -8.3528749796        9.1275620084       24.4999092103
  C        -9.9235447399        9.6482876949       25.7290854920
  S        -3.5449623128       14.0690290957       37.0313716585
  C        -3.2542463801       16.6545003090       37.5594144464
  H         3.3867606491        7.8852786576       10.3652269087
  H         3.6375881109        6.1202381412        9.8295052813
  H         2.4503714804        6.6357119983       11.1540047170
  H         6.9492926737        5.7304969606       30.4717142759
  H         5.5774259093        5.4013414629       31.5641484261
  H         6.7881870949        6.6290954288       32.0819846244
  H       -10.6668585609        9.2018850747       25.0613547900
  H       -10.2569684213       10.5416973298       26.1934089837
  H        -9.7142108998        8.9163765832       26.4811237030
  C        -3.7214935068       14.7771585375       38.6937239536
  N        -3.6082847282       16.0992401755       38.7343190084
  O        -3.0026712641       17.8173982137       37.3755018629
  S        -4.5693149849       13.9649774048       39.9329613448
  C        -3.7997444512       17.0044593120       39.8407007757
  H        -4.1432302198       17.9784734031       39.5274972765
  H        -4.5863071366       16.5684605048       40.4473236364
  C        -2.4634139210       17.1733556914       40.6449523731
  H        -1.8221834353       16.2901483334       40.5516817396
  H        -1.7713615809       17.8750439875       40.2340965202
  H        -2.7616582432       17.3358829557       41.6911420203
  H         7.3923814094       11.2759393330        3.4437810384
  C         8.1548023580       10.5390901528        3.4468017397
  H         7.5881657139        9.5619989451        3.4633862577
  C         9.0489939058       10.6574256527        4.6214030758
  C         8.9504739374       10.6010721375        2.1712909398
  C         8.4085221229       10.6948506222        6.0423994162
  H         9.7880836731        9.9098617579        4.5978170924
  H         9.6852120691       11.5359619851        4.5823087686
  H         9.6003168462       11.4791785745        1.8953700739
  H         8.2459245926       10.4793974405        1.3078661792
  H         9.5629445184        9.7328017846        2.0912540656
  C         7.5796250775        9.4551499396        6.3158269372
  H         9.1724277103       10.8776496783        6.8297022855
  H         7.6625464411       11.4506058343        5.9848671137
  C         6.9053670584        9.5212064753        7.6258084914
  H         8.1418729250        8.4874243092        6.2457258703
  H         6.8860003754        9.3537727632        5.4394177179
  C         5.5825818507       10.2632281841        7.5906415372
  H         7.5965637945       10.0617343714        8.2716240129
  H         6.8418434606        8.5142756906        8.0147902795
  C         4.4360678279        9.5768118172        7.0706069342
  H         5.4189589919       10.4642575219        8.5969019121
  H         5.7518646741       11.2335500679        7.1374576817
  C         3.2138676299       10.4932286887        6.9799799547
  H         4.2303244921        8.7323609385        7.7163746288
  H         4.6044733480        9.1648211129        6.0759792195
  C         3.5593043135       11.8237247578        6.2365700041
  C         2.7878667774       11.2406089345        8.1493699950
  C         2.0484893514        9.8645534610        6.2437882563
  C         3.4027161042       12.9320661489        7.0387842300
  C         4.1970808983       12.1904215141        5.0391919599
  C         2.9482450473       12.5886044690        8.2428421658
  C         2.3613682846       10.6906756611        9.3481716434
  H         2.4559078858        9.4444317220        5.3204326272
  H         1.6139713606        9.1115319874        6.8439759431
  C         0.8519845360       10.8261357391        5.9024994066
  S         3.8457738514       14.4129474112        6.3483080713
  C         4.3398155714       13.5571997180        4.9420088475
  H         4.5119179947       11.4235697123        4.3406171139
  C         2.6176855715       13.2901980200        9.3744693976
  H         2.2516908482        9.6230892636        9.4437898024
  C         1.8782344875       11.3685596335       10.3900847605
  H         1.1723928030       11.8198396599        5.4587000343
  H         0.3252148121       11.0867214704        6.7953876524
  C        -0.2487780181       10.1256953221        5.0992898942
  C         4.5828220285       14.2191529110        3.5922752254
  C         1.9715420483       12.7097142087       10.4996025213
  H         2.6337461976       14.3598817179        9.4137095876
  C         1.3738209707       10.9846276306       11.6167104677
  H        -1.2333841804       10.5480824963        5.1696393970
  H        -0.4612590660        9.1559679008        5.6001179322
  C         0.1324762659       10.0536166282        3.6119097964
  C         4.6391003293       15.6365039025        3.4322516745
  C         4.9800361643       13.4802118518        2.3631613391
  C         1.4408609641       13.4070256317       11.7744130078
  C         1.1387068317       12.1003881982       12.3985302860
  S         1.0294981437        9.4679203305       12.2471380486
  H         0.5474825331        9.1197308319        3.3427972128
  H         0.7692328807       10.8154473667        3.2416341823
  C        -1.1224167013       10.0834273346        2.7552015853
  N         4.6459848784       16.5579722150        4.4679981260
  C         4.8397462368       16.2483905063        2.2190820963
  C         5.2566668626       14.0885848500        1.1584460086
  H         5.0216315554       12.4179390591        2.5271583910
  C         0.0913160487       14.1738227045       11.6825695952
  C         2.5176510421       14.1682494125       12.5943096799
  C         0.8211714699       11.6438584983       13.6636886616
  C         0.7652382013       10.2654919977       13.7800187664
  H        -1.8563135864        9.5991971010        3.3932908115
  H        -1.4976372692       11.1282934086        2.7256289356
  C        -1.0976346216        9.3722552167        1.4211567487
  S         4.4966236058       17.9980379487        3.8320196129
  N         4.8101803712       17.6344589209        2.2908569358
  C         5.1326316070       15.5515913286        1.0267570809
  H         5.4103172779       13.4185194808        0.3034138397
  H         0.2238295910       14.9480202590       10.9567666992
  H         0.0343686763       14.6455808384       12.6469607126
  C        -1.1812511522       13.3987782992       11.2961429991
  H         2.6588774297       15.1827200833       12.2853840798
  H         2.1918286706       14.2561620718       13.6862261732
  C         3.9166808372       13.4641513410       12.5410344182
  H         0.6008385252       12.4698325194       14.3841507802
  C         0.4857146884        9.5027228900       15.0670517963
  H        -2.0987710066        9.4646989534        1.0792780796
  H        -0.7502405880        8.3928624555        1.4545427133
  C        -0.5489744109       10.2930592235        0.3498161499
  C         5.3509235291       16.2758116269       -0.1841414135
  H        -0.8904993130       12.8810866302       10.3929859189
  H        -1.3662485248       12.5139259072       11.9254116249
  C        -2.4403131434       14.1979537898       11.1528905350
  H         4.4252914385       13.7280537526       11.6061195460
  H         3.5986426634       12.4277310950       12.5744408456
  C         4.8070098636       13.7136103488       13.8250146132
  C         0.4293213539        8.0773606380       15.1633110850
  C         0.1416545994       10.3231675580       16.2586020856
  H        -1.2766168304       10.8664484972       -0.0923645970
  H         0.0808970010       11.0167356560        0.8481654711
  C         0.1300518565        9.5028640251       -0.7633793743
  H         5.2124897810       17.3900153887       -0.1118592619
  C         5.5298786040       15.8806177211       -1.5146136066
  H        -2.1769561871       14.9506845198       10.4828353305
  H        -2.6755604578       14.6400971645       12.1153699306
  C        -3.5804789927       13.3045942079       10.6044410867
  H         4.4672947582       14.6289526502       14.2336833256
  H         4.5157132275       13.1365364428       14.7170578364
  C         6.3338090540       13.6447021901       13.6673043042
  N         0.5028535152        7.1668718468       14.1533866454
  C         0.0929054603        7.4793202531       16.3562908125
  C        -0.0838606205        9.6761344222       17.4497141015
  H         0.1412491237       11.4226568039       16.1754524438
  H        -0.5166142618        8.5817195818       -0.9202093739
  H         1.1798998352        9.3143624059       -0.4646668820
  H         0.1486582467       10.0112245051       -1.6930839105
  S         5.7411294009       14.2255991430       -2.0100334341
  C         5.5195467532       16.9230543414       -2.5465733999
  H        -3.1634635922       12.4871552843       10.0229915054
  H        -4.0895898787       12.8314237737       11.4148882680
  C        -4.3703343267       14.0631775773        9.5535521783
  H         6.5973389479       12.9548170486       12.8041248207
  H         6.7795129627       13.3445339275       14.6700718462
  C         6.9463540538       14.9649000729       13.2510196166
  S         0.2543664752        5.6634010005       14.8240977132
  N        -0.1034786997        6.1430006309       16.3072548223
  C        -0.1086327527        8.2166705415       17.5306955463
  H        -0.3015466443       10.3516987761       18.3216180398
  C         5.8174795384       14.8988973647       -3.6370090022
  N         5.7079977420       16.2838645729       -3.7329775852
  O         5.5532494540       18.1406981093       -2.3160522997
  H        -4.8688880796       14.9393816232       10.0308787914
  H        -3.7089331417       14.4497740215        8.7820392188
  C        -5.5147416555       13.1516781834        8.9809889458
  H         7.8089369295       14.7002428817       12.7031861545
  H         6.2798349691       15.5074873871       12.5945761913
  C         7.3804566430       15.9008515428       14.4123165482
  C        -0.4876792271        7.5197896710       18.6971061750
  S         6.3718064860       14.0316663587       -5.0272168653
  C         5.6836974489       16.8952565881       -5.0131694543
  H        -5.0759397518       12.5872219760        8.1624495611
  H        -5.7136460172       12.3452989400        9.6720010214
  C        -6.7430607628       13.9507399752        8.5362237063
  H         8.0932935977       15.4446788369       15.0647128142
  H         6.4918164569       16.0588809532       15.0295509570
  C         7.9375871441       17.2303646769       13.8203110780
  H        -0.6885791504        6.4415577926       18.5353981728
  C        -0.9265160323        7.9240818880       19.9305256441
  H         6.3847214852       16.5593995207       -5.7528408634
  H         5.8019909601       17.9544982110       -4.9572465277
  C         4.2410810540       16.7803860882       -5.5761433646
  H        -7.0583884486       13.3840235580        7.6876356256
  H        -6.5076218072       14.8683373515        8.0642149644
  C        -7.9006059792       14.0373462592        9.5727783782
  H         8.6748795762       16.9652497269       13.1207416063
  H         7.2005139064       17.7400966436       13.2671475903
  C         8.6387406024       18.2191487919       14.7390489207
  S        -1.3054554879        9.5257152659       20.4786933364
  C        -1.2506230208        6.8603435685       20.8967691897
  H         4.1430621250       15.9155525458       -6.2493044363
  H         3.8395067977       17.7790466850       -5.9318982291
  H         3.7234678797       16.5911315172       -4.6727674586
  H        -7.6426033824       14.8598079589       10.1966167166
  H        -8.8262217548       13.9387350403        9.1099661594
  H        -7.9290272554       13.2124553048       10.2311563384
  H         9.3180994832       17.8307667956       15.4102244326
  H         9.0502685706       18.9858519304       14.0997739261
  H         8.0025325420       18.4663447235       15.5825562202
  C        -1.8800288833        8.7648971510       21.9435572760
  N        -1.7919480605        7.3796979252       21.9952016451
  O        -1.0109195568        5.6512943689       20.6503847382
  S        -2.4417070119        9.7271967134       23.4049169871
  C        -2.0291972257        6.5936271903       23.2131393557
  H        -2.3798090410        5.5253697507       23.0394519386
  H        -2.9020931015        7.0464347272       23.6783498108
  C        -0.8631564124        6.5752416666       24.1144565817
  H        -1.1051279253        6.0275430893       24.9856272833
  H        -0.6591420074        7.5605368454       24.5601273772
  H         0.0422681322        6.1426013617       23.6737137854
