352
i =
  H        -4.2747778766       12.6004476813       16.4186575384
  C        -3.1818953456       12.7899899382       16.4716223048
  H        -2.7031612464       11.8048889001       16.6460170652
  C        -2.6652110843       13.7190538275       17.6660709093
  C        -2.7259826574       13.1273805045       15.0496340990
  C        -3.0906945213       13.1664722200       19.0168374271
  H        -1.5633794538       13.7611383360       17.5635896241
  H        -3.0899733200       14.7274433999       17.5047315236
  H        -2.6674536297       12.1968523133       14.4082917508
  H        -3.1833731259       14.0018362718       14.5271121177
  H        -1.7222513894       13.4778207666       15.0872787531
  C        -1.9222238286       13.0060342288       20.0139598630
  H        -3.5992213648       12.2110309417       18.9111081337
  H        -3.7398929377       13.8843550136       19.4429860998
  C        -2.3553930765       12.7845703150       21.5432357517
  H        -1.3425878766       12.1303491392       19.7134719792
  H        -1.3764064803       13.9418798460       19.8176779753
  C        -1.2845147904       12.1869797040       22.4407184204
  H        -3.1623063744       12.0748246898       21.4035493657
  H        -2.6445207150       13.6951862417       22.0072563172
  C        -0.2714257374       13.2161498239       23.0037455046
  H        -1.8045064069       11.7965180233       23.2835825443
  H        -0.7889935512       11.4155832726       21.8628536770
  C         1.0614260237       12.6563452835       23.6875882818
  H         0.2324639454       13.8135267978       22.2434760013
  H        -0.8321222913       13.9601458179       23.6306620882
  C         1.4803616109       11.3271572995       23.0810302222
  C         0.7055659483       11.9263920472       25.0367758019
  C         2.2027002104       13.7089086297       23.7328297838
  C         1.4503730678       10.2131282820       23.9100080253
  C         2.0483610363       10.9762405052       21.8192766270
  C         0.9420978394       10.5840214534       25.0841747459
  C         0.2707752715       12.4946370762       26.2288364472
  H         2.3503098696       14.3919021535       22.8320683808
  H         2.0016253464       14.4675260685       24.4872008349
  C         3.5063239222       12.9888023191       24.0936091370
  S         1.8560494900        8.6632379858       23.1632910325
  C         2.1875041588        9.5984269495       21.6764915515
  H         2.2042714072       11.7553761631       21.0968472119
  C         0.5541113592        9.9680558185       26.3430445603
  H         0.1038909926       13.5395154609       26.0376781203
  C        -0.1237769910       11.9373251976       27.3597025320
  H         3.9768589714       12.4527295097       23.3124762595
  H         3.2865554355       12.2073516683       24.8321603856
  C         4.5261895335       13.9563420293       24.6642492310
  C         2.5179536609        8.9535668442       20.3928988663
  C         0.0380015180       10.6325525644       27.4963471063
  H         0.7676713609        8.8857118894       26.4182519234
  C        -0.5873973231       12.3852406258       28.5623201951
  H         5.2767110264       13.4615527030       25.2406249776
  H         3.9885584943       14.5847627371       25.3262436225
  C         5.1953174513       14.7688249857       23.5371955846
  C         2.3954752159        7.5445406346       20.1683793892
  C         2.8762847948        9.7467890884       19.2173013567
  C        -0.3225472505        9.9835622063       28.7789305586
  C        -0.6912944258       11.3411227266       29.4293498597
  S        -0.9032670694       13.8940756325       29.2846703493
  H         5.8053848633       15.5850942673       23.8822108809
  H         4.3479113366       15.1014282012       22.9769667444
  C         6.0731355320       13.9056226799       22.5395729538
  N         2.0018979336        6.5620267895       21.0584960684
  C         2.6023016981        7.0247484621       18.8650613945
  C         3.0520069617        9.2514994322       17.9244615785
  H         2.9014271369       10.8369532487       19.3757563867
  C         0.8573248575        9.2914102250       29.4844523964
  C        -1.5479788258        8.9593485547       28.5460532922
  C        -1.0269435599       11.8078092100       30.7393841365
  C        -1.2355346086       13.1696498156       30.7944482463
  H         6.9402322059       14.5043003560       22.3501280679
  H         6.4265399361       12.9751952464       22.9204766582
  C         5.4888574914       13.8140272513       21.0913083573
  S         2.0560046131        5.1432421425       20.3033766263
  N         2.4977301055        5.6411099781       18.8486796433
  C         2.8278450267        7.7944549496       17.6922529235
  H         3.4707735011        9.8433257640       17.1793015931
  H         1.2649459718        8.5175535509       28.9269795163
  H         0.6540358742        8.8716482003       30.4483440831
  C         1.9862751955       10.2993010116       29.7339315353
  H        -1.2446823999        7.9883801412       28.1336708790
  H        -2.0961791950        8.7041934156       29.4466565680
  C        -2.6669867815        9.5433832797       27.7053811923
  H        -1.1234229444       11.0843469989       31.4886576652
  C        -1.5449609250       13.9517359881       32.0217557218
  H         5.3431560583       14.8374864122       20.6581892837
  H         4.5493865815       13.1672280215       21.0598978653
  C         6.4407933388       13.1310051643       20.2064995079
  C         3.0370152832        7.1337622266       16.5055275673
  H         2.1238551198       11.0004091941       28.9441358772
  H         1.7275749657       10.9272631986       30.6116230144
  C         3.1199604866        9.4399159691       30.2374453899
  H        -2.3592953185        9.9172481619       26.7269636729
  H        -2.8940371087       10.5114411512       28.2661778739
  C        -4.0054126380        8.8007184279       27.5723530227
  C        -1.5989936257       15.3715678944       32.0226025187
  C        -1.6559543056       13.2692821088       33.3494020720
  H         7.4485200417       13.5630111499       20.1969761614
  H         6.6583097595       12.2118876100       20.7021450238
  C         5.8969674370       12.6462228273       18.8214805286
  H         2.9430462690        6.0899442085       16.5797542558
  C         3.4452609556        7.5530698446       15.2371440374
  H         3.5985740822        8.9580225654       29.4594913765
  H         2.6781557122        8.8712488879       31.0595609710
  C         4.2898857457       10.2009050330       30.8920135318
  H        -3.8871797766        8.0782269515       26.8459317473
  H        -4.2768126518        8.2826611521       28.4984934060
  C        -5.1136848081        9.8247158620       27.1999629303
  N        -1.3827752506       16.2429766389       31.0187797883
  C        -1.8722814337       16.0837451805       33.1967694670
  C        -1.7898560970       14.0640414597       34.4713064833
  H        -1.5469645431       12.2008691338       33.3819134679
  H         5.7967892881       13.6705908426       18.2705275173
  H         6.6987008590       11.9816707489       18.4268691902
  H         4.9808308749       12.1313647009       18.8003910822
  S         3.9546404399        9.1496893845       14.7767344684
  C         3.5469681040        6.5422693264       14.1566882665
  H         4.4242527912       11.0603547616       30.3014468373
  H         3.9836127001       10.4898795067       31.8765157897
  C         5.5213935391        9.3347211865       30.8502542492
  H        -4.5971748457       10.6012580718       26.7094327075
  H        -5.5320126001       10.1113798635       28.1361315425
  C        -6.1962616565        9.2195815618       26.3154062284
  S        -1.7659473855       17.7434711682       31.4595628166
  N        -2.1412850924       17.4703787633       33.0011912943
  C        -2.1557763819       15.4987344780       34.4114333869
  H        -1.8263689230       13.5491590373       35.4356633767
  C         4.1847273831        8.4238364024       13.1497771750
  N         4.0747265555        7.1265764259       12.9986443313
  O         3.4232398134        5.3251757344       14.3180678615
  H         6.3636973968        9.9915979007       30.9974385359
  H         5.7505789002        9.0058046679       29.8956735975
  C         5.6188435202        8.1475405248       31.8299128043
  H        -5.7429361151        8.4436642291       25.7766212342
  H        -6.9781488319        8.8335317272       26.9593726237
  C        -6.7140961321       10.3003645232       25.4560727976
  C        -2.5628570842       16.3241077809       35.5378140595
  S         4.5392470171        9.4381944363       11.7105598583
  C         4.1412102855        6.4156649362       11.7547371110
  H         6.5597252702        8.3702688408       32.2929283461
  H         4.8754028894        8.1689048822       32.6647543983
  C         5.5823712429        6.6347294145       31.2572001324
  H        -5.9775482598       10.2941074680       24.6811588668
  H        -6.8035606019       11.3108353594       25.9271990338
  C        -8.0533446082        9.8606805786       24.9419780627
  H        -2.2690034692       17.3330405875       35.4613350218
  C        -2.9644406803       15.9931415708       36.8111024192
  H         4.9460773385        6.7474324078       11.0862593929
  H         4.3880712308        5.3903610471       11.9415089915
  C         2.7388272581        6.5292372872       11.0037175552
  H         6.5513056931        6.5324183273       30.6949173050
  H         4.8138902377        6.5463656064       30.4958743977
  C         5.6521654188        5.4528345801       32.2701507233
  H        -8.0980240861       10.4710305418       24.0882739643
  H        -8.1226505615        8.7609833746       24.6201570848
  C        -9.2368739932       10.1753259619       25.8124024099
  S        -3.3361158399       14.4023916480       37.4474991182
  C        -3.2230816503       17.1243960422       37.7153933544
  H         1.8656692081        6.3719586509       11.6749176542
  H         2.6549694446        7.4768651006       10.4999725583
  H         2.5673589566        5.7505726052       10.2364814149
  H         4.6343363748        5.1124044970       32.5769340749
  H         6.2966320591        5.7998796308       33.1222783507
  H         6.0562753369        4.5175515798       31.9397084444
  H        -9.0941343347       10.9999216359       26.4963457547
  H        -9.5646963318        9.3843336102       26.4769727788
  H       -10.0076531154       10.3408826691       25.1007816559
  C        -3.5788548209       15.2417607943       39.0278211081
  N        -3.5635981696       16.6267978455       38.9212431578
  O        -3.0310098465       18.3370082908       37.4374028919
  S        -4.5645274870       14.5593245322       40.3673949385
  C        -3.6514216730       17.5207145705       40.0756390529
  H        -3.7036299685       18.5843191961       39.8332017079
  H        -4.5630722036       17.2791373642       40.6471146588
  C        -2.3550033996       17.3979389143       40.8704018537
  H        -1.9841688630       18.2856365139       41.3965196307
  H        -2.4755421711       16.7235170494       41.6676979191
  H        -1.5997851720       17.0178023908       40.1768589904
  H         7.5433407882       11.2265439267        4.1186753920
  C         7.9610556533       10.2210742439        4.0059852730
  H         7.2048760032        9.5018040270        3.8552673906
  C         8.7133155724        9.7997076913        5.2449204402
  C         8.8777566083       10.0795660724        2.7749831214
  C         8.0573216927       10.1395575938        6.5879785354
  H         8.8739597043        8.7337482481        5.1857478838
  H         9.6969374715       10.2358025551        5.3282354700
  H         9.3595793946       11.0022566978        2.5918411864
  H         8.3701521782        9.8460603889        1.8668015814
  H         9.5223439530        9.2059481451        2.9139887540
  C         7.3461585193        8.9197916918        7.0917525948
  H         8.8706925320       10.5516959846        7.2446435432
  H         7.4430788235       11.0262452872        6.5465699554
  C         6.6938949408        9.2306602123        8.4535048253
  H         8.0742688194        8.1771388905        7.2738135709
  H         6.6401628365        8.4955622709        6.3844212932
  C         5.3605897110       10.0206838261        8.3186028961
  H         7.4776367192        9.8438549927        8.9118715876
  H         6.5836820126        8.3242462015        9.0151794317
  C         4.1359012234        9.3259490543        7.8838652049
  H         5.2169295479       10.3168346985        9.3187509817
  H         5.5399587522       10.8242845961        7.5930978971
  C         2.8806001267       10.2808289140        7.5590825813
  H         3.8581584744        8.5403109594        8.6361881824
  H         4.3137024332        8.7882563481        6.9491958576
  C         3.2578884357       11.6992824857        6.8520866612
  C         2.3685891199       11.0184234521        8.7301797002
  C         1.7031380643        9.6602946618        6.7096740688
  C         2.8996081220       12.7680224492        7.6630164636
  C         3.9376566695       12.1013939985        5.6688334110
  C         2.3806630853       12.3738133651        8.8154607275
  C         1.9151523163       10.3894181722        9.8675742756
  H         2.0604593960        9.5306341490        5.6908326039
  H         1.4800518915        8.6967806221        7.1659529006
  C         0.3476360033       10.4247280637        6.6215771579
  S         3.2172782433       14.2336450692        6.9408814339
  C         3.8891320506       13.4828864878        5.5697169814
  H         4.2419466526       11.4396224154        4.9157472451
  C         1.8431195006       12.9590749202        9.8656203971
  H         1.8393763179        9.3306829510        9.9422050351
  C         1.5387852542       10.9865035993       10.9956040036
  H         0.5541081274       11.4867421430        6.4071241710
  H        -0.2198948656       10.2310102156        7.5285177833
  C        -0.5060657221        9.7207983175        5.5845959835
  C         4.0978031871       14.3053896650        4.3804397420
  C         1.4680169160       12.3469720580       11.0394297239
  H         1.7437619089       14.0168362586        9.9247260081
  C         1.0214597371       10.6556688503       12.2131739460
  H        -1.4697764032       10.2134308486        5.5802470756
  H        -0.6167041151        8.7024438518        5.8538588360
  C         0.0391902518        9.8796130133        4.1435763119
  C         3.9591621699       15.6668993665        4.1201522040
  C         4.7158155826       13.6110371180        3.2184679818
  C         0.9754666182       13.0134498684       12.3246189719
  C         0.7188625705       11.6832789356       13.0546858547
  S         0.8862463236        9.1035667993       12.9644046644
  H         0.5925801242        9.0343738754        3.7607342953
  H         0.7302927320       10.6682490405        4.0961898703
  C        -1.1256627499       10.1769719577        3.1341679916
  N         3.4941051796       16.6170652581        5.0528568501
  C         4.4091249841       16.2464313577        2.9473228395
  C         5.0156421633       14.1528824214        2.0182087562
  H         5.0070345348       12.5657283328        3.4145200697
  C        -0.3095437658       13.8887207833       11.9815735485
  C         2.0742442055       13.8174416012       13.0554754651
  C         0.1588932729       11.2358931790       14.2148854692
  C         0.3015751580        9.8789853105       14.3351071076
  H        -1.8725941460        9.4046510107        3.3425330716
  H        -1.7217305692       11.1598844789        3.1941883377
  C        -0.6460961733        9.9775912230        1.6472017758
  S         3.8202633416       18.1437553364        4.4760682128
  N         4.3812685616       17.6121223542        3.0012479748
  C         4.7493530146       15.5936517554        1.7582369531
  H         5.3294762609       13.5442349706        1.2004740646
  H        -0.1098403476       14.6527118274       11.2058892872
  H        -0.5998293522       14.3894719135       12.9278798688
  C        -1.3907784939       13.0097992147       11.4348237912
  H         2.5508123857       14.4958530752       12.3624132809
  H         1.5838683536       14.4577508640       13.8101496399
  C         3.1522879446       12.9251598966       13.7163172840
  H        -0.0990395195       11.9474093111       15.0271721667
  C         0.0250534057        9.1050546393       15.5589251830
  H        -0.2084449537        8.9424137820        1.5823067720
  H         0.2401554978       10.5564470819        1.3330720293
  C        -1.6887255457       10.1557924282        0.5905558852
  C         5.0282764938       16.3034622465        0.5655208183
  H        -1.1601708212       12.3812945766       10.5652625972
  H        -1.5910114654       12.1930193862       12.0285989439
  C        -2.6703023924       13.8468806112       11.1347382269
  H         3.5945725231       12.1715286562       13.0624893480
  H         2.7560269778       12.3467704515       14.6043767608
  C         4.2063124830       13.9137650207       14.2050980762
  C        -0.0990206050        7.6818684630       15.7282026792
  C        -0.1683081822        9.8897013571       16.8098552434
  H        -2.4392474249        9.3713671613        0.6204456356
  H        -2.3486737555       11.0413089455        0.7884663319
  C        -1.1061279652       10.3656107778       -0.8157866285
  H         4.7597445082       17.3520624252        0.6394124913
  C         5.4356411990       15.8974073412       -0.7165310669
  H        -2.4821241662       14.6181143072       10.4159057790
  H        -2.9968555562       14.3825762567       12.0184075896
  C        -3.7368794803       12.9918835848       10.5064140344
  H         4.6211855074       14.3611966498       13.2873081884
  H         3.7906624391       14.6911581687       14.7464822036
  C         5.3944581777       13.1681945242       14.7768553543
  N         0.1909241090        6.7705417965       14.6773291580
  C        -0.3508544394        7.1173035268       16.9155532542
  C        -0.5128854027        9.3010045938       17.9944602630
  H        -0.0043900803       11.0124770364       16.7641394450
  H        -1.8938170920       10.5155546877       -1.5544934023
  H        -0.6052439066        9.4689455078       -1.2459419117
  H        -0.3799221231       11.1511751664       -0.8600970112
  S         5.7369378356       14.2723438252       -1.2927124264
  C         5.5034120109       16.9631761150       -1.7233476349
  H        -3.3425180965       12.3886789150        9.7325171579
  H        -4.1869133501       12.4444658381       11.2620644171
  C        -4.7241983192       13.8891743725        9.8873235677
  H         5.8295182357       12.6221425408       13.9726467900
  H         5.0489294752       12.5292403126       15.5768494564
  C         6.4992584977       14.0784222014       15.3930685787
  S         0.2408340204        5.2645642056       15.2528598303
  N        -0.2819399861        5.7121920458       16.7739841481
  C        -0.5887443770        7.8192926249       18.1109533325
  H        -0.6987310765        9.9214951914       18.8789214985
  C         5.9205772432       15.0373918953       -2.8201293225
  N         5.7808449159       16.3836431706       -2.8830916500
  O         5.2388032961       18.1218000861       -1.5576026188
  H        -5.2143314201       14.3178307966       10.7795958951
  H        -4.2065965983       14.6038058711        9.2041438171
  C        -5.6700779155       13.0046390184        9.0017268589
  H         6.0934469107       14.5464782218       16.2815756275
  H         7.3569476374       13.4709297608       15.7113802274
  C         6.9816430727       15.2665261306       14.5796829803
  C        -0.8961516161        7.0303676485       19.2961651522
  S         6.1221547166       14.1084409415       -4.2947561138
  C         5.6925804687       17.1793630860       -4.1524796037
  H        -5.3080499209       12.7781340101        8.0648026545
  H        -5.7229325022       12.0450731827        9.5109899144
  C        -7.0377414086       13.6048569723        8.8027302184
  H         6.1632038869       15.7366921549       14.0575632549
  H         7.6544828899       14.9673890824       13.7018794922
  C         7.8019788870       16.1640227668       15.4851317926
  H        -0.4208884092        6.0786732010       19.3187341712
  C        -1.4924994016        7.3937516366       20.4931623415
  H         6.2322257793       16.6450837325       -4.8908056671
  H         6.3060058508       18.0984792518       -3.9996092204
  C         4.2813108414       17.3021325450       -4.7207537467
  H        -7.5464078201       13.2501116450        7.9208067054
  H        -6.9388430640       14.7195565751        8.6899807542
  C        -7.9489158875       13.4680596616       10.0051667421
  H         7.0884059139       16.9092862706       15.8074744500
  H         8.0855925392       15.5786232502       16.3360924868
  C         8.9035199092       16.9046872587       14.7458366947
  S        -1.9725086923        8.9165395209       21.0390138946
  C        -1.4480242476        6.4052276713       21.5912213888
  H         3.9794440755       16.2788074004       -4.9418290142
  H         4.2674797175       17.9135568707       -5.6214447198
  H         3.6239128095       17.8845002848       -4.0583703062
  H        -8.3788589003       14.4397972732       10.2769148648
  H        -8.7276709736       12.7841504989        9.7762933769
  H        -7.4191095020       13.0811230936       10.8558343310
  H         9.2936734037       17.7034268744       15.4313217163
  H         9.7802546730       16.2482401454       14.5127098715
  H         8.6378285667       17.3696186393       13.7053130715
  C        -2.4040173905        8.1673002779       22.6220798234
  N        -2.0207074186        6.8290805272       22.7274409542
  O        -1.0726352493        5.2337809433       21.4733278808
  S        -3.0370121080        9.0777536795       23.9553726237
  C        -1.9502850394        6.1648197229       24.0241139378
  H        -2.1620418713        5.0914545558       23.8843039209
  H        -2.7502613464        6.4948422412       24.6739985464
  C        -0.6024773091        6.4926778533       24.6488669183
  H        -0.3973115249        5.8197305983       25.5008549016
  H        -0.8118963227        7.5813944457       25.0006112637
  H         0.1929022353        6.3357776552       23.9213097766
