352
i =
  H        -3.5978856776       14.3008461420       16.3188784684
  C        -3.2938717793       13.2566979424       16.2162423765
  H        -4.2248219606       12.6337294514       16.2726322592
  C        -2.4795808939       13.0263473347       17.4221617839
  C        -2.6005966885       12.9824339492       14.8810926864
  C        -3.1715266680       13.3749165826       18.6799896437
  H        -2.3186041403       11.9400512392       17.4544386863
  H        -1.4818506722       13.5073142139       17.3234494269
  H        -3.2944706628       13.2629271529       14.0718208622
  H        -1.6937783738       13.5535493841       14.7804228814
  H        -2.2634584325       11.9615557685       14.7931042739
  C        -2.4544446763       12.6483508021       19.8859359968
  H        -4.2242801658       13.1243791241       18.5701968644
  H        -3.1658458343       14.4422649453       18.8026334084
  C        -2.7607074042       13.2287091072       21.2591355788
  H        -2.8343258222       11.5820623057       19.9239556863
  H        -1.4237093811       12.4410779530       19.6429661845
  C        -1.8632290874       12.6187369861       22.2628820862
  H        -3.7566711281       13.1039779371       21.5858322709
  H        -2.4840835750       14.3556799036       21.2301734320
  C        -0.5452699820       13.3898128601       22.4982347550
  H        -2.3401005794       12.1350946401       23.1500468766
  H        -1.4130127371       11.6967912877       21.8134179767
  C         0.6057476803       12.7521932722       23.3492239601
  H        -0.1106595918       13.7831928476       21.6069103046
  H        -0.8168337966       14.2195590462       23.0922781827
  C         0.9313379524       11.4984063219       22.5984023415
  C         0.1223026320       12.0382674015       24.5721531928
  C         1.8645105810       13.6805919123       23.4688416998
  C         0.7124496898       10.4242641379       23.4053729614
  C         1.5036877269       11.1278976118       21.3352999615
  C         0.2373438815       10.6958661379       24.6883231169
  C        -0.2735927425       12.6210848755       25.7824730758
  H         2.0265207578       14.1260007188       22.4631141642
  H         1.6185804910       14.5861068596       24.0481089571
  C         3.1228248639       12.9692980957       23.9638578856
  S         1.0696207437        8.9067586095       22.6749490061
  C         1.6498134643        9.7500361267       21.2926850708
  H         1.7637377062       11.8288596866       20.5682584134
  C        -0.1204302756        9.9834507316       25.7888729666
  H        -0.2750676652       13.7617479529       25.8419283553
  C        -0.5448684050       11.8912781180       26.9426518036
  H         3.4717388399       12.3144103364       23.1697450471
  H         3.0393378206       12.4563053586       24.8834132303
  C         4.1858242304       14.0379947815       24.2450445889
  C         2.1339091805        8.9900212725       20.0384900926
  C        -0.4528031755       10.5897670296       26.9491439088
  H        -0.1437360503        8.8806672874       25.7229311621
  C        -0.9398204348       12.2260200724       28.2256083218
  H         4.9690487503       13.7009297123       24.8670255961
  H         3.7424268879       14.7898075939       24.8647937625
  C         4.9773699343       14.6567219775       23.0214167329
  C         2.1393789512        7.5916897703       19.8105983493
  C         2.4963701311        9.8036894088       18.8865565569
  C        -0.7619478049        9.8391337357       28.2323914336
  C        -1.0331245261       11.1567315354       29.0433016858
  S        -1.3058469744       13.7392834364       28.9121664863
  H         5.6517974498       15.4501335775       23.2884570478
  H         4.1858705570       15.0229746761       22.3507107281
  C         5.8323262821       13.4977351803       22.4295851461
  N         1.9888533807        6.6919751691       20.8298682788
  C         2.4829115109        7.0440720182       18.5862677391
  C         2.9180044133        9.2624089902       17.7035364179
  H         2.6138529001       10.8802331253       18.9943539744
  C         0.4831039646        9.0829680161       28.7401511894
  C        -2.0041661398        9.0263576952       28.0626766404
  C        -1.4321214771       11.5398793674       30.2983587194
  C        -1.6721431659       12.8727990281       30.3989977630
  H         6.8322028767       13.9569182698       22.3401192912
  H         6.0081188187       12.6932235335       23.0824706023
  C         5.1769334375       13.0888309452       21.1436212175
  S         1.8363374959        5.2420517698       20.1095829183
  N         2.2117711851        5.7018728541       18.5796203440
  C         2.9759563391        7.8003273851       17.5037814709
  H         3.1818971141        9.9554955632       16.8923075255
  H         0.9800065901        8.4890119286       28.0529571150
  H         0.1043332785        8.2591653171       29.2466379189
  C         1.5722974346        9.8725835884       29.5798082351
  H        -1.8213828608        8.1816077101       27.3411545175
  H        -2.3784486448        8.5288301494       29.0215841284
  C        -3.1934450899        9.7763814281       27.4520069025
  H        -1.5193786527       10.7293682764       31.0088275505
  C        -2.1233458637       13.5911578340       31.5985442706
  H         4.2913676248       13.6594605939       20.9070424861
  H         4.8291651793       12.0463233583       21.3276439538
  C         6.0160311910       13.0249454299       19.9336578122
  C         3.2989369939        7.1306571225       16.2376083971
  H         2.1225144753       10.5083198340       28.8579496493
  H         1.0988656226       10.4835051373       30.3656481669
  C         2.4938857465        8.8531019585       30.1223584285
  H        -2.9957448010       10.2416695826       26.5470297465
  H        -3.4881828790       10.6176572862       28.1073933071
  C        -4.5329503878        9.0210779791       27.3391705852
  C        -2.1492279298       14.9900429424       31.7574424972
  C        -2.4054002732       12.8145274300       32.8149928437
  H         5.4018835079       12.5066345527       19.2366731756
  H         6.2919007291       14.0301522310       19.6420420274
  C         7.3042084729       12.3224980337       20.2776145422
  H         3.1644817271        6.0345604151       16.2650336614
  C         3.4058848718        7.6398291612       14.9147138082
  H         2.7670800418        8.2409814560       29.2871764100
  H         1.9176572079        8.2439192545       30.8234703709
  C         3.7091230055        9.5246773922       30.8159998131
  H        -4.4860002112        8.2081193732       26.6434544538
  H        -4.9418068542        8.6648887504       28.3367726354
  C        -5.5089082258        9.9530021358       26.7505078253
  N        -1.8657685208       15.8961039352       30.7053710157
  C        -2.5238070572       15.6530605075       32.9344618084
  C        -2.6177483557       13.4772513738       34.0617116196
  H        -2.3377940483       11.7081214542       32.7247909189
  H         7.0521783792       11.4749653442       20.9051780298
  H         7.8114695483       11.9804715394       19.4158156162
  H         7.9835614672       12.9499141135       20.8835275639
  S         3.5787339026        9.2746613458       14.3984243479
  C         3.4471455640        6.6818711792       13.8446978835
  H         3.7232769890       10.5147519166       30.3902593806
  H         3.5717519819        9.6655034459       31.9293188014
  C         5.0586737625        8.7851164698       30.5661984442
  H        -5.0576391793       10.3998532591       25.8708052960
  H        -5.7847650193       10.7781485507       27.4602671804
  C        -6.7625350437        9.2898223943       26.2123092301
  S        -1.9783729874       17.4266193284       31.2244977081
  N        -2.5589189966       17.0556199941       32.7360848748
  C        -2.7307527999       14.9621934417       34.1254034380
  H        -2.7599310933       12.9342144045       34.9551048362
  C         3.8629388778        8.5636455398       12.7614406632
  N         3.8727281795        7.2208635176       12.7481883605
  O         3.3418004382        5.4509868405       14.0050199921
  H         5.8456971041        9.4620303386       30.8105703390
  H         5.3654082841        8.5658970494       29.4582051299
  C         5.0638731179        7.5526775869       31.3768449461
  H        -6.4766845770        8.5551024248       25.5084768274
  H        -7.0828358113        8.7821395775       27.0790044886
  C        -7.7162908497       10.2770271032       25.6829986668
  C        -2.9864728274       15.7186405236       35.2912166630
  S         4.4506253561        9.3977382349       11.3840637458
  C         4.0639207225        6.4297373070       11.5378001866
  H         5.6428386951        7.7391711381       32.3237944267
  H         4.0452551080        7.1998997070       31.7395141292
  C         5.6975641432        6.3210776322       30.7699568465
  H        -7.3904889691       10.4755677680       24.5858508861
  H        -7.6435153607       11.2111319197       26.2753225845
  C        -9.1180660313        9.6478639632       25.5676482709
  H        -2.5411412990       16.6780292515       35.2254383142
  C        -3.5081136186       15.3472745948       36.4803763592
  H         4.8372333220        6.8280498751       10.8209456017
  H         4.5264853029        5.4906679044       11.8307141977
  C         2.7299535798        6.0922271310       10.8951606621
  H         4.9733388882        5.7199415335       30.2565988541
  H         6.0204834994        5.6786812426       31.6352936944
  C         6.9430892423        6.5971123328       29.8320726303
  H        -9.6446275880       10.0385900346       24.6935309797
  H        -9.1540054326        8.6233006259       25.3220316660
  C       -10.0133409626        9.9449571167       26.7859554196
  S        -4.2364917671       13.9167947294       36.9269158461
  C        -3.4209424329       16.4040994835       37.5200581826
  H         2.8971784241        5.4803626526       10.0498664516
  H         2.1771647916        5.4041146279       11.5883923873
  H         2.0753416684        6.8943229748       10.5520180085
  H         6.6759256900        6.8760277685       28.7753256257
  H         7.4388309226        5.6664188145       29.5221906666
  H         7.7072484318        7.2091620012       30.2500157768
  H       -10.8541838006       10.4727819844       26.3527312519
  H        -9.4504248614       10.5465622559       27.5669180921
  H       -10.3768542782        9.0290670280       27.1703139572
  C        -4.5398878984       14.7094585739       38.4685132108
  N        -4.0256790725       15.9392146608       38.6243768575
  O        -2.9357714687       17.4968874486       37.3610316966
  S        -5.5968860600       14.0980097316       39.7238437817
  C        -4.3023415705       16.8098663625       39.7606152466
  H        -4.2641186201       17.8457341076       39.4752882973
  H        -5.3206618091       16.7519093141       40.1801887263
  C        -3.3344328782       16.4694405335       40.8683906340
  H        -3.9132827609       15.7858202882       41.5253516330
  H        -2.5264724143       15.8244969374       40.5878877972
  H        -3.0398938040       17.3777742135       41.3941215864
  H         6.6170359966       10.4755928837        3.7442423016
  C         7.4227866246        9.8087321201        3.6257256126
  H         6.9568692939        8.8252803843        3.8891004049
  C         8.4638984235       10.2049949694        4.6637922993
  C         7.9861234387        9.7311810353        2.2014606819
  C         8.0013235308       10.3703931563        6.1018658976
  H         9.2099724707        9.4218756929        4.6214783497
  H         8.9573972201       11.1205669221        4.3129824284
  H         9.0478756415       10.0293502338        2.1594359759
  H         7.4362637092       10.3319141688        1.4140479526
  H         7.9323148715        8.6573509697        1.8184894896
  C         7.2476236670        9.1916715618        6.6528012479
  H         8.9052852312       10.4534846110        6.6967397141
  H         7.4415293850       11.2797371503        6.3075152858
  C         6.4942120103        9.4598861120        7.9951960537
  H         7.9069295445        8.3810469446        6.8913232972
  H         6.4898974660        8.8830485817        5.9384943028
  C         5.2245167699       10.3617099634        7.9620003927
  H         7.2306675484        9.9893944153        8.6870836400
  H         6.1918388844        8.4803194537        8.4772953528
  C         4.0196497768        9.5504371362        7.3958205837
  H         5.0137576308       10.8876198145        8.8479212321
  H         5.4482749232       11.2194266855        7.4072907748
  C         2.8136496613       10.4479829222        7.0194669254
  H         3.7875755117        8.8366425526        8.1709144140
  H         4.3723787515        9.0394906665        6.5192822044
  C         3.1441810055       11.8423178323        6.3963043183
  C         2.3723513890       11.1089178981        8.3255515518
  C         1.7150179404        9.7035107326        6.2425904117
  C         3.0092963401       12.9318231670        7.2620206098
  C         3.6897633198       12.2424749570        5.1924022711
  C         2.4639752065       12.4571548484        8.4458329774
  C         1.8695838710       10.5151720140        9.5216005504
  H         2.2033335686        9.1627200869        5.4331151936
  H         1.1905871600        8.8808043216        6.8243526218
  C         0.6424425696       10.5810509229        5.5593494362
  S         3.5592321245       14.4166558986        6.6261689234
  C         3.8206064304       13.5891889888        5.1055211975
  H         3.9011272481       11.5176905539        4.4304041672
  C         2.0416050191       13.0244203209        9.6216682289
  H         1.7102215296        9.4578855761        9.3895336629
  C         1.5104865635       11.1034249915       10.7190190001
  H         1.1226410565       11.3760821426        5.0082908131
  H         0.0820844813       11.0441698563        6.4242653813
  C        -0.2968673094        9.8779893162        4.6912800333
  C         4.1090373060       14.4174626921        3.8786028584
  C         1.5691727273       12.3995796759       10.8025836336
  H         2.0981190021       14.0801956625        9.6396848160
  C         1.0447888965       10.7112238070       11.9467262644
  H        -1.0720414069        9.4505931196        5.2569079422
  H         0.2159666890        9.0669022156        4.2824168628
  C        -0.7294579913       10.7302894394        3.5331173627
  C         4.0824733116       15.8378871408        3.6780607018
  C         4.6957596935       13.7099715332        2.7696680242
  C         1.1735288981       13.0682487491       12.0867476550
  C         0.8349981610       11.7670689090       12.8012087626
  S         0.7402540880        9.1335927125       12.6071436237
  H         0.1984647383       10.9778391825        2.9563969274
  H        -1.0765816788       11.7133279162        3.8523985691
  C        -1.7976134745       10.1278665413        2.6172585764
  N         3.6666567122       16.8373806235        4.6185363904
  C         4.4213885633       16.4381587283        2.4652113260
  C         5.0045019500       14.2778160637        1.5323379721
  H         4.7893810195       12.6243008897        2.8775513212
  C        -0.0796748329       13.9409007061       11.7688114240
  C         2.3035311527       13.7404639901       12.9122021435
  C         0.3467041199       11.3538120154       14.0348697942
  C         0.3217038344        9.9710564845       14.1309341564
  H        -2.4779363332        9.5194421506        3.1593250365
  H        -2.4673791277       10.9615692968        2.3091743980
  C        -1.1908711107        9.3362419975        1.4397684095
  S         3.6168295375       18.2305352900        3.9518364838
  N         4.1444190645       17.7973167347        2.5441402570
  C         4.8787655562       15.7481218443        1.3380079920
  H         5.4324309954       13.6242579495        0.8148098722
  H         0.2774046109       14.7972283357       11.1556935451
  H        -0.4493475308       14.3244364103       12.7654510585
  C        -1.2344453228       13.1063320236       11.2363619935
  H         2.6785126017       14.6025279880       12.4126820209
  H         1.8414109033       14.0311550802       13.8572735319
  C         3.4642734627       12.8028510310       13.2888902580
  H         0.2810305950       12.0782138548       14.8483036425
  C        -0.0787888655        9.2869438519       15.3816981028
  H        -1.8367017268        8.6052625756        0.9226796854
  H        -0.3730268723        8.6503046447        1.7509271420
  C        -0.6740298315       10.1056854711        0.1652621926
  C         5.2529176664       16.4104633660        0.1401449503
  H        -1.0333634672       12.5664993489       10.3655628497
  H        -1.4440295949       12.2809452641       11.9098038846
  C        -2.5235697286       13.8124416893       11.3238475698
  H         3.5914504825       12.0274428817       12.4763368367
  H         3.1093320080       12.1516769251       14.0901820159
  C         4.7435190031       13.4523384427       13.6762076521
  C        -0.0921993380        7.8963485167       15.5954404431
  C        -0.5062231106       10.0237331359       16.5931036358
  H        -1.1956564551       10.9965709232        0.0104552557
  H         0.3662732524       10.4931328477        0.3140347373
  C        -0.7094425868        9.2905236612       -1.0963778567
  H         5.1790038244       17.4362749705        0.1442392042
  C         5.4375164498       15.9426094355       -1.1352941296
  H        -2.5380331195       14.6446020184       10.5749531994
  H        -2.6162911160       14.2050343891       12.3491529819
  C        -3.6628885845       12.7796364870       11.1754239289
  H         5.5108174346       13.2110036138       12.9166568529
  H         4.5363471588       14.5209147710       13.5338339711
  C         5.2573481030       13.0945195259       15.1044341483
  N         0.0632877419        6.9484013280       14.5482404602
  C        -0.5236583709        7.2683636230       16.7931580275
  C        -0.9777030200        9.4147175705       17.7359149867
  H        -0.2884020516       11.0895270639       16.5673300643
  H        -1.5893046163        9.6845053372       -1.6812900104
  H        -0.6984624465        8.2457315928       -1.0735314837
  H         0.1925729841        9.5323633871       -1.6235235095
  S         5.6502215163       14.3231640177       -1.6466433010
  C         5.5347498911       17.0242374835       -2.1815756644
  H        -3.3470994958       11.8963484732       10.5622506497
  H        -3.9058867478       12.4076063935       12.1505107677
  C        -4.8990451606       13.4391497818       10.5479833951
  H         5.3092521771       11.9884413021       14.9258923040
  H         4.5612878539       13.2081484393       15.8917756775
  C         6.6219477073       13.7114091359       15.3448394154
  S        -0.0093698175        5.4812791410       15.1433191827
  N        -0.5983999341        5.9128539913       16.6484240110
  C        -0.9041960841        7.9774392155       17.9318927586
  H        -1.2668591223       10.0565090952       18.5494557306
  C         5.8759198692       15.0675956760       -3.2414186641
  N         5.8858075822       16.4188070986       -3.3171447324
  O         5.4297074285       18.2174022987       -2.0270252791
  H        -5.6292031245       13.7316723383       11.2276714253
  H        -4.6044609742       14.3498961697       10.0328455100
  C        -5.6306137353       12.4595561286        9.6722417056
  H         6.9899372429       13.2015766805       16.2157989699
  H         7.3420920863       13.5764424779       14.4790945079
  C         6.4024024029       15.2231653261       15.6773172651
  C        -1.1835505849        7.3107955670       19.1470953272
  S         6.1311766659       14.1973466593       -4.7547253388
  C         5.9684801118       17.1811657013       -4.5644032800
  H        -4.8474182317       11.9881066878        9.0460467287
  H        -5.8977383751       11.6254562293       10.3356289161
  C        -6.7842602312       13.0079229873        8.8547964816
  H         6.4678171079       15.2561763629       16.7716589265
  H         5.4425390705       15.6432679137       15.3922659663
  C         7.3823448398       16.1786627048       15.0573894698
  H        -0.8006772940        6.3101519694       19.0288479816
  C        -1.7055673301        7.6786252429       20.3780968061
  H         6.5050183822       16.7934739901       -5.4215441229
  H         6.3533398976       18.1746011130       -4.4856852965
  C         4.5596883743       17.2885113028       -5.2030224158
  H        -7.2783949143       12.1886946163        8.2973080661
  H        -6.3462672639       13.7057710753        8.1030533892
  C        -7.7249172844       13.8503963148        9.6762770200
  H         7.2854736513       17.1628665204       15.5233274426
  H         8.3846921019       15.8855728566       15.2879023333
  C         7.2546373959       16.2220848112       13.5416995155
  S        -2.1660128244        9.1833642256       20.9606765983
  C        -1.7383370781        6.6000181884       21.3642574571
  H         3.7231447821       17.0211027125       -4.4808677006
  H         4.5014955381       16.5662497125       -5.9767904252
  H         4.3526290029       18.2340080296       -5.6426434826
  H        -8.4367647945       13.9993990750        8.8744679759
  H        -8.2242672680       13.3722781563       10.5165719057
  H        -7.2242461253       14.6961895060       10.0403262854
  H         8.1060945722       15.7614909647       12.9945709707
  H         6.2870195235       15.7809827159       13.2091929501
  H         7.1515594983       17.2832964975       13.2040694463
  C        -2.5847933582        8.3071887794       22.4685951283
  N        -2.2813936341        7.0213926361       22.4981634788
  O        -1.3533191855        5.4554335167       21.1839064951
  S        -3.3471017655        8.9464339751       23.9272627456
  C        -2.4622074310        6.1657693076       23.6622962085
  H        -2.5186138520        5.1042225850       23.3070710956
  H        -3.2962853785        6.3305959960       24.3354757177
  C        -1.1986014611        6.3706753733       24.5345635200
  H        -0.4855201026        5.5263550924       24.3920845074
  H        -1.5371883345        6.3251176233       25.5755854876
  H        -0.8564850602        7.3675785171       24.2918495791
