352
i =
  H        -1.8582797831       14.7749462780       14.9076889127
  C        -2.4969940264       14.0992819350       15.5116918909
  H        -3.3244505917       14.7360195085       15.6782692548
  C        -1.6595188938       13.7612156672       16.6861334004
  C        -3.0276127471       12.9323372742       14.6602404862
  C        -2.4677392190       13.9617727378       17.9677324858
  H        -1.4017071506       12.7382285515       16.5202040555
  H        -0.7386138710       14.3246977113       16.5483882733
  H        -2.1300365731       12.3935746857       14.2529515539
  H        -3.6629640046       12.3204687828       15.2774883301
  H        -3.5655142827       13.3025615258       13.7433831763
  C        -1.5767781919       13.9785613732       19.2125137465
  H        -3.2969907065       13.2579439246       17.9648689911
  H        -2.8404574420       14.9527793792       17.9777409409
  C        -2.2435215251       13.7662055766       20.6105126988
  H        -0.8248318429       13.2293110698       18.9955859292
  H        -1.0304817301       14.9251748397       19.2397253964
  C        -1.3521104936       12.9653476187       21.5105727243
  H        -3.1956835776       13.3136806478       20.2960468692
  H        -2.4607188029       14.7013429927       21.0872880078
  C        -0.2352243324       13.8084280250       22.1852496325
  H        -1.9163895524       12.4119686104       22.2570203211
  H        -0.8373417385       12.1375587231       20.9422707677
  C         0.9631118018       13.0460348556       22.9595742154
  H         0.1702707383       14.5492014670       21.4927662948
  H        -0.6420572753       14.4345976301       22.9672441040
  C         1.3189836116       11.7047189202       22.2445700678
  C         0.5515821479       12.2696760860       24.1586745314
  C         2.2204449546       13.9785128931       23.3594364105
  C         1.1911412608       10.5745135787       23.0430453441
  C         1.8081736517       11.3870093771       20.9573759044
  C         0.6481621852       10.9184716751       24.3141264550
  C         0.0844048856       12.8727527220       25.3573758406
  H         2.6712505005       14.4687412293       22.4777599571
  H         1.8674037116       14.8788268774       23.9141572612
  C         3.4100082071       13.2400402928       24.0109474502
  S         1.7974272621        9.1229530178       22.3278893531
  C         2.1068045042       10.0307093176       20.9022508393
  H         1.8245291905       12.1077137826       20.1839433864
  C         0.2802494007       10.3057429997       25.4615315245
  H         0.0527500459       13.9407634721       25.4281962212
  C        -0.1614945939       12.2644739089       26.5495839942
  H         3.6494667740       12.4221583048       23.3220655051
  H         3.1015875651       12.6281437787       24.8782022048
  C         4.6885846354       14.1066959555       24.3623620305
  C         2.6993181147        9.3686328087       19.6861275777
  C        -0.1234060818       10.9207766806       26.6678763021
  H         0.4659380841        9.2265327703       25.5435380364
  C        -0.5822110742       12.6788194460       27.8390609569
  H         5.1523210718       13.4480650190       25.1082107235
  H         4.3957688534       15.0554012126       24.8598133800
  C         5.6513289616       14.4255316269       23.1947486744
  C         2.6741610612        8.0406146520       19.4240110218
  C         3.1708915883       10.1957796696       18.5792624416
  C        -0.5142104344       10.2095056744       27.9235972912
  C        -0.8215428675       11.5841071646       28.6217755776
  S        -0.8410433682       14.1414076154       28.6809573782
  H         6.4082004433       15.1414767520       23.5351059097
  H         5.1564330372       15.1108543053       22.4978772867
  C         6.3512588862       13.2315969305       22.4308286704
  N         2.2786497803        7.0287701345       20.2909450094
  C         2.9811748869        7.4876365349       18.1782729808
  C         3.4966897455        9.6737156766       17.3095779870
  H         3.2937890676       11.2703038058       18.7412503607
  C         0.6130580205        9.3666602542       28.5626766228
  C        -1.8622226178        9.4282925180       27.8243428298
  C        -1.2134972261       11.8841431030       29.9768199854
  C        -1.1833501357       13.2572125198       30.1763832114
  H         7.4020899088       13.3365145255       22.8155314078
  H         5.8844892448       12.3333638314       22.7741094114
  C         6.4338303989       13.3210025122       20.9545770132
  S         2.4246125474        5.6275967104       19.5296251221
  N         2.7378872947        6.1921607661       18.0719813575
  C         3.3793809062        8.2279213698       17.0477425855
  H         3.9770215389       10.2754353106       16.6058811480
  H         0.8447047055        8.4203630430       28.0844870789
  H         0.1719687631        8.9596785420       29.4671648539
  C         1.7976271906       10.1880710041       29.0329226735
  H        -1.7736720863        8.5666725144       27.1701001045
  H        -2.1588274506        9.0339131817       28.7530017886
  C        -3.0679730483       10.1965080417       27.1949413437
  H        -1.5019485128       11.0424485084       30.5774707826
  C        -1.4715398359       13.9517956426       31.4281684852
  H         6.0465271473       14.2927999804       20.7367856177
  H         5.8647064273       12.5523874157       20.3929598893
  C         7.8349561492       13.4600809326       20.3038593751
  C         3.7063060762        7.4816583238       15.8229210166
  H         2.1377700145       10.7474515309       28.2403094844
  H         1.4634746030       10.8065125350       29.8316970139
  C         2.9709068999        9.2544797578       29.4774813204
  H        -2.6794290670       10.7407179239       26.4205948657
  H        -3.3316046114       11.0248001341       27.8317897303
  C        -4.2155812280        9.3389735016       26.7647181502
  C        -1.5332292449       15.3593156584       31.6105858255
  C        -1.6554753011       13.1843988431       32.6813965211
  H         8.0234893331       14.4630349133       20.6193781203
  H         8.6056621673       12.7759826608       20.7233373402
  C         7.9213655133       13.6611276843       18.7916132877
  H         3.3753316174        6.4402532200       15.7968032641
  C         4.0536687121        7.9323566798       14.5559406826
  H         3.3606997661        8.8388736180       28.5374199654
  H         2.6473914018        8.3467974558       30.0385300035
  C         4.1383855735        9.9593424714       30.1488848605
  H        -3.7007004323        8.6304785284       26.0660384455
  H        -4.5819273075        8.6950571378       27.5837129425
  C        -5.2974851236       10.1331306323       26.0822214968
  N        -1.4206264848       16.2966172355       30.5983714246
  C        -1.7987005100       15.9455443373       32.8604107458
  C        -2.0004121049       13.7543282275       33.9182104130
  H        -1.5257074549       12.1377924300       32.6197977796
  H         8.5892557664       14.4154604420       18.5774987458
  H         8.2816833404       12.6828147426       18.3729937012
  H         7.0239648624       13.9731250662       18.3149101660
  S         4.3988115947        9.5599430419       14.1125987345
  C         4.0580932636        6.9882448617       13.4639707809
  H         4.3010840506       10.8854026285       29.6609677235
  H         3.9361564095       10.2056360134       31.1803859426
  C         5.4031190605        9.0993222798       30.0994141543
  H        -4.8595302770       10.7328795419       25.3110799183
  H        -5.6995205312       10.8760860673       26.7914362683
  C        -6.5784679296        9.3869811662       25.5048212489
  S        -1.4085579317       17.7654161523       31.2064770180
  N        -1.6593002410       17.3246049436       32.8088518611
  C        -2.0949573891       15.2249602539       34.0298578529
  H        -2.1388720450       13.0536386959       34.7576047286
  C         4.4837471030        9.0173483689       12.4321907792
  N         4.3859861310        7.6288990382       12.3344433191
  O         3.9504397924        5.7233350739       13.6421262901
  H         6.3323118708        9.6854790618       30.2047586321
  H         5.4768664300        8.5923184482       29.1504851330
  C         5.4727436294        7.9316752026       31.1197964208
  H        -6.2982299691        8.9552071313       24.5533230189
  H        -6.6391006464        8.5610368154       26.1503916940
  C        -7.7432906240       10.3873098617       25.4764943710
  C        -2.2696218230       15.9734760375       35.2207763673
  S         5.0012546277       10.0024451691       10.9564613921
  C         4.3571012487        6.9343836592       11.0857674660
  H         5.8225284347        8.2431554399       32.0970631348
  H         4.4525718915        7.5759524385       31.3190645937
  C         6.2631022605        6.7622869302       30.5513546700
  H        -7.5204668074       11.2029394881       24.7898901936
  H        -7.8190982339       10.9513117980       26.4068892379
  C        -9.1532602178        9.8214367007       25.1441426990
  H        -1.9537593187       16.9983368516       35.1539567743
  C        -2.9563541177       15.6605705168       36.3601330315
  H         4.9347494174        7.4751926506       10.3583915075
  H         4.9068852574        6.0088424148       11.1320216926
  C         2.9324954238        6.7400065678       10.6083358198
  H         6.9866274983        7.1104679931       29.8835281473
  H         5.6457772429        6.2266393127       29.8988448485
  C         6.7371342200        5.9071755145       31.7130825635
  H        -9.7058249725       10.7029512691       24.7009690430
  H        -9.1902823077        9.0176219805       24.4775594625
  C        -9.8624012902        9.4858250500       26.4223278653
  S        -3.5851174617       14.1576257628       36.7843239571
  C        -2.9720149866       16.6994957945       37.4150647582
  H         2.7320584827        7.2847447166        9.7146621867
  H         2.7380747543        5.6882811085       10.2412723865
  H         2.2579111955        6.9615836963       11.4189294406
  H         5.8723414011        5.5885295338       32.3640320923
  H         7.3536798613        6.4606106470       32.4207211971
  H         7.2196782819        5.0218407865       31.3235840340
  H       -10.8540242974        9.2872466408       26.4392753198
  H        -9.8266691684       10.4100491408       26.9999688634
  H        -9.4170158259        8.6745201031       27.0421749938
  C        -3.9788213982       14.9658250585       38.3620821191
  N        -3.6329027152       16.2242718457       38.5006382787
  O        -2.6334586652       17.8202410260       37.2218081784
  S        -4.4458330102       14.0725298040       39.8049509222
  C        -3.8787908103       17.0846524030       39.6874179243
  H        -4.0548034502       18.1135006854       39.3969906784
  H        -4.7535013754       16.7587440886       40.2755388162
  C        -2.6583197472       17.2136440589       40.5988801223
  H        -2.8026299238       18.1284133341       41.2858522259
  H        -2.4697713858       16.2788538600       41.2362371433
  H        -1.7593411162       17.4240830692       40.0127177684
  H         7.2157152337       11.1842757649        3.1572132918
  C         7.7147026656       10.2129857248        3.1646344317
  H         6.9140888123        9.4522694534        3.2182086325
  C         8.7440251130       10.2096695188        4.3436150281
  C         8.3943177903       10.1585233181        1.8609923335
  C         8.0459374477       10.4225976574        5.7129583540
  H         9.3155199045        9.2582174321        4.3631839358
  H         9.5528537677       10.9777757902        4.1022463336
  H         7.6501415384        9.9714746010        1.0783917800
  H         9.1377015612        9.2890843946        1.8069749254
  H         8.8919617138       11.1013719224        1.7666984174
  C         7.2601204308        9.2370598870        6.2316569430
  H         8.7286030061       10.6872191103        6.5214450454
  H         7.3376729313       11.2978500206        5.5867256184
  C         6.5677509283        9.4796376594        7.6395596231
  H         7.9287490585        8.3571196774        6.1652428593
  H         6.5011410270        9.0484824338        5.5112369814
  C         5.3660436906       10.4378623822        7.4517732831
  H         7.3009497639        9.9453848694        8.3066403077
  H         6.2772869392        8.5635464381        8.1721200932
  C         4.1203565395        9.6528301647        6.9541455562
  H         5.2139453667       10.9682293652        8.4137005987
  H         5.5823544304       11.3315122194        6.7864988851
  C         2.9026383717       10.5895723449        6.5578403555
  H         3.8503834555        8.9674402179        7.7867933875
  H         4.3432821432        8.9453854373        6.1741117406
  C         3.3032560873       11.9416324273        5.9246160880
  C         2.4888787170       11.2183688742        7.8189862863
  C         1.7512756351        9.8349788093        5.9020135831
  C         3.1000941138       12.9782074578        6.7865343982
  C         3.9399810523       12.3511150353        4.7374503659
  C         2.5283933658       12.5429211184        7.9164617214
  C         1.9346152720       10.5825039504        8.9808906585
  H         2.2418801079        9.1220452766        5.1703064567
  H         1.3441743676        9.0767349326        6.5922057645
  C         0.5476303936       10.6524064702        5.3492016654
  S         3.6463892974       14.5046920356        6.2120798953
  C         4.1226124769       13.7049924797        4.6589612105
  H         4.1670110115       11.6065262843        3.9352212184
  C         2.2426274404       13.0995836654        9.1334027365
  H         1.8316522314        9.5185793588        8.8917770887
  C         1.6411642272       11.1254480925       10.1545970367
  H         1.0014673957       11.3666319752        4.5300169411
  H         0.2018925030       11.2051760250        6.2301269241
  C        -0.6255333660        9.8693500353        4.6103416031
  C         4.6933063769       14.4150666036        3.4731016801
  C         1.7760986189       12.4741198351       10.2843837585
  H         2.3826826666       14.1241538643        9.0355262338
  C         1.2864552406       10.7341501660       11.4230578885
  H        -1.4943588577       10.5113020784        4.6671040528
  H        -1.0227729652        9.1102171210        5.3342859452
  C        -0.2358880268        9.4373424910        3.2322100049
  C         4.6050457926       15.7883858086        3.2864120716
  C         5.0754440272       13.5808228774        2.3172348139
  C         1.5419097635       13.1532618268       11.5699233745
  C         1.2742499085       11.8073363484       12.2647989182
  S         0.9958128988        9.2493449656       12.2363982753
  H         0.1207124014        8.4067896716        3.1794394535
  H         0.6165165671       10.0015429312        2.8385527271
  C        -1.4430365717        9.5665452159        2.2487687549
  N         4.2095517030       16.7217936485        4.2417114812
  C         4.8568917884       16.3057806435        1.9828751467
  C         5.3778442571       14.1023774605        1.1009298899
  H         5.3117034300       12.5480726305        2.4485902528
  C         0.3470989172       14.1247253378       11.5809107442
  C         2.8750673314       13.8335756136       12.0474565566
  C         0.9384182389       11.4780606262       13.6111348118
  C         0.7781044147       10.1043497214       13.7245513436
  H        -2.2895428476        8.8814560340        2.5764065879
  H        -2.0377477744       10.4882696206        2.1896208930
  C        -0.9069249641        9.2786990457        0.8224575416
  S         4.0875740941       18.1094057470        3.4830496371
  N         4.5261121350       17.6334694986        1.9797330477
  C         5.2402691338       15.5444466353        0.8496237236
  H         5.7822814329       13.4148755365        0.3859140861
  H         0.6386074225       14.8126978858       10.8170321233
  H         0.2647302377       14.7105810555       12.5299587991
  C        -1.0174483364       13.4593736072       11.2546233436
  H         3.6888890570       13.1968906404       11.6702468452
  H         3.0002541015       14.8400777904       11.5913923269
  C         3.0410787494       13.9722722582       13.4851018227
  H         0.9795680111       12.1876386649       14.3408613574
  C         0.3784493787        9.2911522146       14.9094299081
  H        -1.7730701545        8.8278614898        0.2882133754
  H        -0.0831478457        8.5125357817        0.7735912351
  C        -0.4335416390       10.5652060785        0.0721070382
  C         5.4120465660       16.2804713095       -0.3539785926
  H        -0.8214275807       12.7403162962       10.4101603573
  H        -1.3965021243       12.8804681164       12.0923281509
  C        -2.2153415815       14.4013366757       10.7835426736
  H         2.8952701374       13.0205214895       13.9761416236
  H         2.2562369921       14.5050440432       13.9778115454
  C         4.4847533175       14.4467627886       13.8569161554
  C         0.4219435483        7.8651140795       15.0586594306
  C         0.0778607712       10.0878763715       16.0741928025
  H        -0.3932431090       11.4006931031        0.7119703261
  H         0.5838313071       10.4138336762       -0.2426050664
  C        -1.2531106931       10.7412147799       -1.1845864743
  H         5.3670975261       17.3179404051       -0.2076297060
  C         5.6803045188       15.8491637061       -1.6128005140
  H        -1.8878434537       15.0372233733        9.9741134160
  H        -2.6755512169       15.0218716799       11.5737717315
  C        -3.3452523433       13.5932429465       10.1781964957
  H         5.0489054757       15.1190914924       13.1651986186
  H         4.5303243863       14.9255865776       14.8255802905
  C         5.3832549506       13.2706397695       14.0582443965
  N         0.6523588651        6.9014560726       14.1002660118
  C         0.0543660251        7.2457236155       16.2454982182
  C        -0.3401197579        9.4738003514       17.2881405432
  H         0.1161367294       11.1616499771       16.0708424611
  H        -2.1455204604       11.3338492601       -0.9868220429
  H        -1.5991813751        9.8857791681       -1.8414728796
  H        -0.7439667385       11.4855476494       -1.8244115892
  S         5.9153479545       14.1939149271       -2.1113787774
  C         5.6104559292       16.8372441261       -2.6864863638
  H        -2.8706808641       12.9994307362        9.4191955946
  H        -3.6903453529       12.9219643354       10.9318638125
  C        -4.5630476392       14.3945945118        9.6139205921
  H         5.1717590043       12.5263081859       13.2368855958
  H         5.1404327370       12.7486421334       14.9838194400
  C         6.8808967275       13.6016975771       14.1389878004
  S         0.7615447267        5.4253225576       14.7268408926
  N         0.1564783691        5.8683642559       16.1727076514
  C        -0.3425057546        7.9633066774       17.3753686239
  H        -0.5042924750       10.0784514542       18.1691038012
  C         5.9777498978       14.9492011002       -3.7974310153
  N         5.9403038954       16.2745259238       -3.8542392054
  O         5.4764113214       18.0268590507       -2.4837859053
  H        -5.0257909470       15.0509293672       10.3433183407
  H        -4.1505313845       15.0863829875        8.8096535735
  C        -5.6897783880       13.4645840331        9.0518665325
  H         7.5906696794       12.8087048571       14.3559704141
  H         7.1528115280       14.0915423252       13.1737394854
  C         7.1236149340       14.6528039147       15.2891077276
  C        -0.5930193522        7.2804973719       18.6132847446
  S         6.3377100007       14.0161889505       -5.2129951507
  C         6.1058375745       17.0129300826       -5.1018086661
  H        -5.4470397786       13.1384544401        8.0336850068
  H        -5.6303836514       12.6315375156        9.7077231254
  C        -7.0621601433       14.0773858354        8.8947579210
  H         7.6949655163       14.1668276613       16.0376247183
  H         6.2250410622       14.9012269016       15.8232353222
  C         7.9634187644       15.8742249432       14.8818404737
  H        -0.4801192355        6.2558127571       18.5603049504
  C        -1.1787717113        7.6288384464       19.7586150056
  H         6.9938557360       16.6596630272       -5.6407725998
  H         6.2524278376       18.0568866559       -4.7733695388
  C         4.8896329195       16.9003522661       -6.0293320181
  H        -7.7296118025       13.4359953357        8.2533110102
  H        -7.0301006501       15.0775835689        8.4659090244
  C        -7.7714549378       14.0390137572       10.1522670218
  H         8.7358942504       16.0488618989       15.6712946934
  H         8.4915774638       15.7162079508       13.9567151197
  C         7.0928792454       17.0969643619       14.8773484653
  S        -1.6571706566        9.1045583202       20.3583208649
  C        -1.2653456121        6.4351159100       20.6831505656
  H         4.8126468239       17.8454107473       -6.5820196940
  H         3.8843989674       16.6333152987       -5.6031934917
  H         5.0707836709       16.1151690760       -6.8265484215
  H        -8.7080553370       14.5916162350        9.9043142337
  H        -7.9889943930       12.9916750662       10.3992982990
  H        -7.1939893314       14.6373796696       10.8543075642
  H         6.7168483927       17.2118701058       15.8453630733
  H         7.6811207523       17.9984137533       14.6457199880
  H         6.3579629077       16.8913236437       14.1201128515
  C        -2.0343020383        8.3050911787       21.8645687399
  N        -1.8011349253        6.9546695380       21.8757226363
  O        -0.5839532419        5.4388242453       20.7022277603
  S        -2.4393870371        9.1854151039       23.3418212833
  C        -1.7680059340        6.1376431610       23.1037995313
  H        -1.8218821870        5.0834618393       22.9718665895
  H        -2.5735201120        6.3517241984       23.7393868946
  C        -0.4399148571        6.4779752096       23.8415268890
  H        -0.4400767289        5.9912886227       24.8407917030
  H        -0.3596016870        7.5514135857       23.9852768444
  H         0.3683270069        6.0285101195       23.2219876552
