352
i =
  H        -3.6897629338       14.3604688855       16.1542659031
  C        -3.1451894338       13.4978205432       16.3950579633
  H        -3.6472254318       12.8339550349       17.0729347944
  C        -2.0071246413       14.0777085651       17.2184144475
  C        -2.7504862194       12.9017539015       15.0034148104
  C        -2.2983048568       14.2796354552       18.7170124916
  H        -1.1969226503       13.3667080600       17.0497016901
  H        -1.7300749580       15.0986868889       16.9370542979
  H        -2.0817302435       12.1305604040       15.1220371306
  H        -3.5898798483       12.5303651289       14.5593327890
  H        -2.3046521187       13.7404627288       14.4735766854
  C        -1.7645407161       13.1625398902       19.6069385391
  H        -3.4671601475       14.1698849821       18.7557622947
  H        -1.9514091382       15.2749431559       19.0741210758
  C        -2.2529039264       13.2402430234       21.0558025698
  H        -1.9669818137       12.2315361698       19.1597464627
  H        -0.6453597367       13.2836621477       19.6356010635
  C        -1.3060968301       12.6778321945       22.0392711093
  H        -3.1857678027       12.7730191074       21.1435800594
  H        -2.4561535976       14.2386833951       21.2538211749
  C        -0.1071622000       13.6837805553       22.5017076581
  H        -1.8350944874       12.4952225859       22.9944436715
  H        -0.9776857788       11.6094171674       21.9853323958
  C         1.0295362437       12.9396278249       23.2856722026
  H         0.2760284725       14.1787723575       21.6295664336
  H        -0.3053408860       14.4141060406       23.2688866707
  C         1.3376681463       11.5637231073       22.6806965104
  C         0.5557788781       12.3280119757       24.6506684725
  C         2.2839275667       13.8217203705       23.3274707125
  C         1.0320807124       10.5088729880       23.5083298253
  C         1.8483822934       11.2094904522       21.3922001851
  C         0.5662401763       10.9684139766       24.7605009441
  C         0.2176246327       13.0172355739       25.7771531411
  H         2.4811738754       14.3353721609       22.4231539287
  H         1.7240856049       14.4406117245       24.1073121770
  C         3.4493388416       13.1861474326       23.8691152664
  S         1.4723690390        8.9962288694       22.8378610365
  C         1.9226605069        9.8358435947       21.3615635368
  H         2.0942305958       11.9734802735       20.6630213263
  C         0.2290597194       10.3990038589       25.9326945534
  H         0.3073760746       14.0507793390       25.8361696246
  C        -0.1022349241       12.4190317294       26.9263419107
  H         3.6577335240       12.2765035187       23.4321141335
  H         3.1317813372       12.9368207782       24.9317269760
  C         4.6286746662       14.1605108902       24.0578363370
  C         2.3595007275        9.1842195835       20.1058138343
  C        -0.1537337205       11.0549400089       27.0783716663
  H         0.1756650586        9.3150752072       25.8869011084
  C        -0.5129050630       12.8305466413       28.1987986284
  H         5.4333592154       13.6669185577       24.6678295377
  H         4.1739488651       15.0258703980       24.4955261535
  C         5.3790532931       14.6288636070       22.7767767581
  C         2.4563231528        7.7719114927       19.8892584345
  C         2.8275774152        9.9766720497       18.9227131932
  C        -0.4555943429       10.4114441108       28.3756099063
  C        -0.7451285972       11.7535009795       29.0431884642
  S        -0.8953460585       14.3541863519       28.8759997986
  H         5.9184142238       15.4960476205       22.8727610007
  H         4.6199195556       14.7479105382       22.0116388374
  C         6.1948413815       13.4301310999       22.2584521943
  N         2.2154912024        6.7990639353       20.9311970214
  C         2.6462256746        7.1418830459       18.6720321066
  C         3.1038653131        9.4000094508       17.6575765451
  H         2.9303884204       11.0965103339       19.0802921678
  C         0.7461317303        9.6738944109       29.1501024542
  C        -1.7722714598        9.5282847378       28.3455224072
  C        -1.1439597937       12.2033721728       30.2955631025
  C        -1.2978484806       13.5778385138       30.4036366620
  H         6.8475581732       13.0012376492       22.9670537365
  H         5.5056044498       12.6807276611       22.0465969193
  C         6.9757159082       13.6203983437       20.9595425909
  S         2.4531551989        5.3549931055       20.2743440412
  N         2.7693309329        5.7815558387       18.7116722398
  C         2.9345068195        7.9319959133       17.4307453069
  H         3.4028546361       10.0230283737       16.9150897456
  H         0.9503829463        8.9457743784       28.3164564693
  H         0.3851528084        9.1722017949       30.0465832089
  C         2.0259949455       10.4791353325       29.5099375406
  H        -1.4587436501        8.5744287592       27.8341805808
  H        -2.0528931057        9.3656396284       29.4056799421
  C        -2.8309499838       10.1394624892       27.4867509558
  H        -1.3982925279       11.3952812035       30.9748189179
  C        -1.6575666547       14.2743557787       31.6758553017
  H         7.8634557579       13.0025564974       20.8698879850
  H         7.5042688485       14.6480205340       21.0228243354
  C         6.2121769307       13.6146766265       19.5764769247
  C         3.1629176541        7.2825660011       16.1472934360
  H         2.2929530602       10.8984718577       28.5989131683
  H         1.9297556547       11.2254296271       30.1371037141
  C         3.1210083459        9.5251640357       30.0544606619
  H        -2.5078615379       10.3954470993       26.5507027394
  H        -3.0434950838       11.1444387623       27.9329256175
  C        -4.1027030314        9.4963010632       27.5115090870
  C        -1.6726834560       15.6873843488       31.8217639641
  C        -1.9135788120       13.4819935574       32.8407785761
  H         5.3526821110       12.9843243956       19.6482139613
  H         5.7689766060       14.5673942718       19.4358801875
  C         7.0471181774       13.1978976653       18.3389341529
  H         3.1296347161        6.1859033477       16.0895711246
  C         3.5817393086        7.7518380950       14.9041502466
  H         3.5339342161        8.8558559362       29.2168123191
  H         2.5966430878        8.8925391756       30.7916393128
  C         4.3698542136       10.3032588314       30.5683927367
  H        -4.1499420908        8.5870267489       26.8963815973
  H        -4.2582556925        9.1796403649       28.5400457944
  C        -5.2739694697       10.3558109162       27.0897474155
  N        -1.3022089244       16.5951755169       30.8009551287
  C        -2.0326055721       16.2796341171       33.0186024654
  C        -2.1306403794       14.0868823058       34.0343836371
  H        -1.7602270846       12.3944905499       32.8646695297
  H         7.7935705099       14.1021804091       18.1339579500
  H         7.7255272319       12.2976652261       18.5877156143
  H         6.4080366539       12.9099660894       17.4767937289
  S         3.8606242443        9.3729383522       14.2951234378
  C         3.9671244146        6.6873961644       13.8868056884
  H         4.4647697369       11.2676454965       29.9321207057
  H         4.1984053199       10.5803061979       31.6368599152
  C         5.6758002508        9.5047299180       30.6265824377
  H        -4.9872541624       11.1057518595       26.3124450147
  H        -5.4996559684       10.9585239073       28.0444757046
  C        -6.5462428967        9.6856291137       26.6416815246
  S        -1.3781261166       18.0801987302       31.4887633223
  N        -1.9769436915       17.7372405489       32.9460937975
  C        -2.3372549164       15.5483445568       34.1910000644
  H        -2.2626291765       13.3544938691       34.9705788873
  C         4.3107335234        8.5825210909       12.8095640308
  N         4.3277410714        7.2360869859       12.7550531519
  O         3.8429524084        5.4771647918       14.1546000160
  H         6.5863900981       10.1165110442       30.8565414250
  H         5.8302096769        9.1174746443       29.7108300236
  C         5.5264913911        8.2187810820       31.3337810012
  H        -6.3088963473        9.1706963946       25.7353186351
  H        -7.1632331362        9.1526346444       27.3554039684
  C        -7.5531813288       10.7069090828       25.9125901293
  C        -2.4532806175       16.2214204123       35.4551176968
  S         4.3591238950        9.4399611876       11.3178377771
  C         4.4774645577        6.5268837320       11.4358806626
  H         5.9671996844        8.1993248837       32.2863435759
  H         4.5686535048        8.0293476341       31.6043072222
  C         6.0274896388        7.1148844896       30.4614669031
  H        -7.3145123935       10.6787628123       24.8177061852
  H        -7.7354878915       11.6981407678       26.3283647334
  C        -8.9362630606       10.0304627861       25.8164677284
  H        -2.1007389798       17.2373375031       35.5059473769
  C        -2.9940952046       15.8032533856       36.6235949984
  H         5.2315760714        6.8341451143       10.6811332557
  H         4.8452571366        5.5238319137       11.5977195491
  C         3.0672013634        6.1325491565       10.9013529456
  H         6.9071755566        7.4056537397       30.0766862276
  H         5.3214505777        6.9278285803       29.6634573437
  C         6.0230185615        5.7243804844       31.1942340917
  H        -9.4550266867       10.3407134581       24.9652302116
  H        -8.7736328207        8.8954999763       25.7190884702
  C        -9.7601273578       10.3289584026       27.0582357109
  S        -3.6746617393       14.2500529268       36.9707791112
  C        -3.0609240513       16.7586718792       37.7136261106
  H         2.3674001180        6.9992656344       10.6090134608
  H         3.0973416234        5.3235616564       10.0828743232
  H         2.3168774685        5.7842138120       11.6465747430
  H         5.0074381312        5.4263960987       31.4424582749
  H         6.4575102253        5.8097478353       32.2180206106
  H         6.5644306145        4.9593408251       30.5915003785
  H       -10.0596758952       11.3553877069       27.2150482385
  H        -9.2093524549        9.9992637997       27.9097399917
  H       -10.6418996629        9.7435872429       27.1133580179
  C        -4.1311344646       14.8834442130       38.5136341095
  N        -3.7426809161       16.1610047239       38.8005160951
  O        -2.4791133428       17.8783849518       37.7258692968
  S        -4.9310582382       13.9948321035       39.7582666164
  C        -4.0552558409       16.8314784686       40.0210004569
  H        -4.4791283000       17.8170368286       39.7600211578
  H        -4.8960087549       16.3809534447       40.5377431417
  C        -2.9297665321       16.9593240928       41.0223746884
  H        -2.9326144388       16.1019386072       41.7169251958
  H        -1.9732441676       16.9072012270       40.6327784920
  H        -2.9300227423       17.9095758363       41.7056059121
  H         7.2871552747       11.3003561544        3.1978607710
  C         7.7063333882       10.3090425763        3.6189021714
  H         6.9676623476        9.4962069056        3.5882463565
  C         8.5774782925       10.3408771658        4.8557188225
  C         8.3625733597        9.8467280888        2.3114670791
  C         7.7472004032       10.5756875999        6.1362943128
  H         8.9958555521        9.3648290758        5.0625655533
  H         9.2850420185       11.0739186104        4.7828499515
  H         7.7309417099        9.8616398011        1.4661050657
  H         8.7746159796        8.8833986654        2.4086983585
  H         9.2217342772       10.4218952232        1.9202889555
  C         7.1763705805        9.1725073687        6.5445289334
  H         8.3700268217       10.9922043736        6.8587799069
  H         7.0316577507       11.4115763122        5.9478496628
  C         6.4884228714        9.2933986238        7.9947540817
  H         7.8588992135        8.3137323224        6.5352158559
  H         6.4702323815        9.0093113042        5.7375321631
  C         5.3466248875       10.3007676391        7.9828912818
  H         7.1596255222        9.5264477765        8.8033984845
  H         6.0860513363        8.2881240672        8.2364414695
  C         4.0784642949        9.6652335484        7.2975110047
  H         5.1316499174       10.2427229074        8.9762865938
  H         5.6826802947       11.3443134471        7.6987875169
  C         3.0043736833       10.7665786807        7.0593279920
  H         3.4546186762        9.0769026785        7.9367323194
  H         4.2344933533        9.0275768582        6.4290805191
  C         3.4697697549       11.9963324795        6.3850315544
  C         2.5786023676       11.3993404955        8.3035996360
  C         1.7354041146       10.1036217460        6.4344248005
  C         3.1220410462       13.1176473715        7.1636284732
  C         4.0882002017       12.3529635381        5.1084607805
  C         2.5892475326       12.7404897781        8.3756612721
  C         2.0565625014       10.7582313982        9.4401744562
  H         1.8600995055        9.5883503134        5.5059900857
  H         1.2843941323        9.3020665072        7.1013293913
  C         0.6038993730       11.0274147076        6.0664565048
  S         3.5914579683       14.6029067593        6.3586005785
  C         4.0364005170       13.7466691481        4.9553128073
  H         4.4251412824       11.5575949113        4.4833272764
  C         2.1116153835       13.4378396755        9.4563309667
  H         2.0517916221        9.6389771067        9.3626985747
  C         1.6916687979       11.3915964053       10.5863254942
  H         0.9651129723       12.0590508284        5.7961319178
  H         0.1800315083       11.2826676646        7.0062869427
  C        -0.4058179231       10.5385711605        5.1166884546
  C         4.3813789909       14.3947401417        3.6701879358
  C         1.6394886551       12.7714205836       10.6664485971
  H         2.1765769840       14.5483811298        9.3904110779
  C         1.2376410682       10.9405019498       11.8258965516
  H        -1.3594144802       11.0565827181        5.2894183828
  H        -0.6055010028        9.5895000118        5.3927961012
  C        -0.0008477310       10.7400690588        3.5528905341
  C         4.3519026001       15.8103722992        3.4766769837
  C         4.6503030425       13.5849109499        2.4936109414
  C         1.0904901952       13.3677941594       11.9680424649
  C         0.8294972600       12.0251254991       12.6250431707
  S         1.0492138852        9.4245594393       12.5134370463
  H         0.9899553529       10.3533305620        3.3927787390
  H        -0.0170630094       11.8419521855        3.3845451050
  C        -1.0662808304       10.1178625930        2.5661633011
  N         4.0350811538       16.7283892246        4.4808772535
  C         4.4300025663       16.3818867262        2.2009182677
  C         4.7560777673       14.1927952972        1.3389462625
  H         4.6609299141       12.5402173944        2.5195027669
  C        -0.1678706738       14.2662570885       11.7205992752
  C         2.2117842340       14.2282841512       12.6561376012
  C         0.4578162169       11.6100866147       13.9603353822
  C         0.4515006061       10.1985505802       14.0094887112
  H        -1.1246858279        9.0500443009        2.6995131134
  H        -1.9479276289       10.6122247883        2.6490450586
  C        -0.4072490980       10.2742162763        1.2365218052
  S         4.1043631030       18.2326479772        3.8253937398
  N         4.2443909600       17.7948586589        2.2640358039
  C         4.8941028690       15.6554731404        1.1291582866
  H         5.0618545867       13.5931946636        0.5686267693
  H         0.0264695635       15.1030671398       11.1814229312
  H        -0.5342197864       14.6769700332       12.6960787357
  C        -1.2948321995       13.4535807188       11.1581202422
  H         2.6106100473       14.9734633302       11.9592482412
  H         1.8668399952       14.7277229710       13.5604702339
  C         3.3854618481       13.3712483071       13.1752522411
  H         0.2961611512       12.3539528636       14.6734204905
  C         0.2780720575        9.4774287679       15.3087681769
  H         0.5957131955        9.7818107860        1.2681993408
  H        -0.3529046457       11.2922140068        0.9920704745
  C        -1.1775712492        9.6566994149        0.0569283493
  C         5.0981505791       16.3536669188       -0.0313184734
  H        -1.0724379917       13.4064874796       10.1146176417
  H        -1.4013442889       12.5055635786       11.6377824680
  C        -2.6362324065       14.1888459805       11.1498656644
  H         3.7487058135       12.8618723785       12.2469929227
  H         3.1361789510       12.5053427661       13.7936795764
  C         4.4163565211       14.1932701116       13.9391476815
  C         0.1511952400        8.1456756986       15.4181890290
  C        -0.0513406592       10.2126114361       16.5131903315
  H        -0.4555813038        8.8266390795       -0.2759466848
  H        -2.0949277376        9.2429294785        0.5389836997
  C        -1.5880198329       10.7728883834       -0.8757808979
  H         5.0255009388       17.4412302799        0.0622051485
  C         5.3403729549       15.9531628112       -1.3644518230
  H        -2.3379147161       15.1941484010       10.8397589546
  H        -3.1139344729       14.2702285164       12.2271070108
  C        -3.6124659499       13.7177043506       10.1883398351
  H         4.9622400981       14.8117896874       13.2899921657
  H         3.9316105903       14.9751323387       14.4526491605
  C         5.4064551051       13.3335909142       14.6623113199
  N         0.4089962532        7.2171255840       14.4011206499
  C        -0.1939793183        7.4965290590       16.5784263745
  C        -0.3201621282        9.5702011768       17.7528437291
  H        -0.1584909133       11.2728845209       16.5194252277
  H        -0.8013015929       11.4026342192       -1.2371169678
  H        -2.4083991671       11.2952479335       -0.4931906552
  H        -2.0199557234       10.3298437215       -1.7236968900
  S         5.5913272310       14.2230566747       -1.7930707347
  C         5.5415761904       16.9420327287       -2.3815945638
  H        -3.2286926402       13.6777803245        9.1019970852
  H        -3.7206609278       12.5613530663       10.2319859836
  C        -4.9799912615       14.2521588253       10.2802266081
  H         5.6559189296       12.4334886951       13.9830102899
  H         4.9666716674       12.8705995348       15.4537878137
  C         6.7519109788       14.0433177444       14.9433953826
  S         0.3413630210        5.7763328697       15.0627790580
  N        -0.2322454864        6.1322524632       16.4516358733
  C        -0.4604045325        8.1601410568       17.7875056170
  H        -0.4540277363       10.1255551321       18.6202426929
  C         6.0275108356       14.9272867335       -3.4055290094
  N         5.9560534635       16.3410299459       -3.4436246924
  O         5.3687587349       18.1214693880       -2.1013929094
  H        -5.5205390522       13.7215104464       11.1519880111
  H        -5.0446261684       15.3272526580       10.4072334727
  C        -5.4975980586       13.7387413336        8.9124462847
  H         7.3005832886       13.3149878614       15.5047123561
  H         7.2674581871       13.9784707548       13.9790966148
  C         6.7828566288       15.4839245746       15.5421703238
  C        -0.7335312063        7.3913429511       18.9234887302
  S         6.4583398377       14.0246173148       -4.8259654459
  C         6.0750270388       16.9863353464       -4.7422012230
  H        -4.8627004600       13.9893319547        8.0241959407
  H        -5.3395532885       12.6045552242        8.9165207531
  C        -7.0265161521       13.9811709819        8.5844250802
  H         7.5845915471       15.2923610003       16.2237950676
  H         5.9449399793       15.6750112645       16.1750120145
  C         6.9740527420       16.6626708854       14.5219667809
  H        -0.8014281886        6.2654696975       18.8634424755
  C        -1.2065967155        7.7467818452       20.1442455483
  H         6.7256912785       16.4760533473       -5.6459048965
  H         6.5644243130       17.9416484477       -4.5626320689
  C         4.7187406749       17.2537600600       -5.3646995667
  H        -7.5330610839       13.5663381764        7.6732047693
  H        -7.0470638878       15.0343076065        8.5072136917
  C        -8.0151618148       13.6818552125        9.7564773761
  H         6.8570755592       16.0808784345       13.5968558624
  H         6.3529670600       17.4782844424       14.6072237587
  C         8.3098195390       17.4137094496       14.6977317458
  S        -1.8113050089        9.3479521440       20.6949959692
  C        -1.2941746321        6.6859138804       21.1783419933
  H         4.5791354365       16.3919318783       -6.0311697335
  H         4.6896053231       18.2682679576       -6.0017574067
  H         3.9092017744       17.4158869952       -4.5473728584
  H        -7.7107041135       14.3076290367       10.6841555551
  H        -9.0768944577       13.9269241542        9.5020894592
  H        -8.1551002940       12.7396945807       10.2419785457
  H         8.6781894957       17.9335909905       13.8273119181
  H         8.1799041477       18.2361861423       15.3664010576
  H         9.1422755446       16.8834316251       15.0374323847
  C        -2.3773346430        8.4918392451       22.2116052222
  N        -2.0837037926        7.1409772526       22.2503623516
  O        -0.7966682269        5.6046262361       21.0602716958
  S        -2.6565511998        9.3322491147       23.7234660524
  C        -2.2624966195        6.2497274735       23.3602699878
  H        -2.4408174958        5.2344791688       22.9275038680
  H        -3.2421764287        6.4335466674       23.8435636295
  C        -1.0564223419        6.2212047514       24.2557027200
  H        -1.0048993336        5.1528649324       24.5931886098
  H        -1.1520821860        6.7965797923       25.2292834858
  H        -0.1421984597        6.5085482264       23.9448970621
