352
i =
  H        -2.5837749907       15.3565449881       16.9840299804
  C        -3.0052912964       14.3740383244       17.0232235953
  H        -4.1025275482       14.5739533292       17.1501978897
  C        -2.2585601231       13.5567838002       18.0509303438
  C        -2.5848850396       13.6967016071       15.6811251432
  C        -2.4798372913       13.9702976564       19.4585818248
  H        -2.4742279110       12.5649559900       17.8954614484
  H        -1.2223878982       13.7127148457       17.8291964743
  H        -2.9937846933       14.2179298498       14.8041796688
  H        -1.4939605967       13.7229409073       15.5839770182
  H        -2.9569695225       12.6017527222       15.6722398877
  C        -2.3453783450       12.7689862568       20.3737345699
  H        -3.5524866454       14.3871714720       19.5440466593
  H        -1.7481954278       14.7194757561       19.7979218779
  C        -2.6154228083       13.3141648591       21.7973035265
  H        -2.9996946757       11.9664747161       20.0159934808
  H        -1.3456003920       12.3412713288       20.3241557855
  C        -1.6239728750       12.8101976112       22.8577807722
  H        -3.5841014234       13.0243418262       22.0235231270
  H        -2.6438552595       14.3935768078       21.8388347894
  C        -0.4732583183       13.7957430043       23.0140434862
  H        -2.1513094402       12.6251909774       23.8000235503
  H        -1.2549676247       11.9038935474       22.5220595395
  C         0.7635838834       13.0993421420       23.5574091818
  H        -0.2236516773       14.2161897519       22.0591119058
  H        -0.7807672269       14.5963483772       23.6689861628
  C         1.2025822357       11.8013337131       22.9123352086
  C         0.3439469549       12.3623942232       24.8481904238
  C         1.9425595641       14.1250912694       23.6920398400
  C         0.9518501885       10.6846623979       23.6786700737
  C         1.6607025634       11.4763441214       21.6209575349
  C         0.4050638288       10.9928410493       24.9435045278
  C        -0.1354863704       12.9183125165       25.9981695474
  H         1.9883094647       14.6402103082       22.7166980425
  H         1.8201470497       14.9949149380       24.3179611244
  C         3.3387646838       13.5170672906       23.9855340184
  S         1.4614421703        9.1972346655       22.9676013747
  C         1.8414049736       10.1072876379       21.4649654812
  H         1.7348250247       12.2520907003       20.9186309433
  C         0.0163497478       10.3466973891       26.0795189678
  H        -0.4847245580       13.9178341551       26.0622737383
  C        -0.3161777379       12.2362956490       27.1398465662
  H         3.5501487850       12.5989846601       23.3482437838
  H         3.3224609512       13.2209971921       24.9612782219
  C         4.5797817596       14.4541380300       24.0285550199
  C         2.3000629454        9.5438269120       20.2241589327
  C        -0.2723327797       10.9133036136       27.2824886234
  H        -0.0013082015        9.3018559743       25.9228546121
  C        -0.6494359934       12.5869612372       28.4590858936
  H         5.3772520322       14.0525322535       24.6388892954
  H         4.3271084559       15.3857795540       24.5319924403
  C         5.0845930416       14.7916120329       22.5724604776
  C         2.4009761098        8.1649941156       20.0151480912
  C         2.7477644387       10.4308698190       19.1191539334
  C        -0.5907968439       10.1993948367       28.5421774489
  C        -0.8715369042       11.5135949401       29.2313266271
  S        -0.8590870924       14.1024342863       29.2702045071
  H         5.6856633110       15.7458748095       22.7159936664
  H         4.2003680059       14.9752227309       21.9323375712
  C         5.9242488281       13.6812702791       21.9167343400
  N         2.0518531851        7.1857728042       20.9223753685
  C         2.7283483880        7.6235627731       18.7754619950
  C         3.2009684232        9.8264782540       17.8966672066
  H         2.7987426817       11.4869424008       19.2057835150
  C         0.4778013488        9.3274579472       29.1836398580
  C        -1.9067779583        9.3551211777       28.2829206230
  C        -1.1853334959       11.8948018951       30.5451509582
  C        -1.2637845759       13.2668319259       30.7044197154
  H         6.9525512103       13.8824915933       22.1949858924
  H         5.6527173908       12.7109961266       22.2689147366
  C         5.8106895782       13.7857368781       20.3867402447
  S         1.9749564382        5.7089712394       20.2451842359
  N         2.4694650019        6.2317120565       18.7461952070
  C         3.0078603988        8.3835231493       17.6191122046
  H         3.3575130041       10.4790532439       17.0487916494
  H         0.6439241731        8.4028771692       28.5811528120
  H         0.2127214757        8.7517502297       30.0958903085
  C         1.7809011275       10.1052246998       29.2135437029
  H        -1.8905478095        8.6268968978       27.4441418469
  H        -2.0957991597        8.6748976285       29.1241954420
  C        -3.1420262528       10.1196090539       28.0110929912
  H        -1.4387131879       11.1115093465       31.2349442669
  C        -1.5456027789       13.9650073281       31.9313129083
  H         5.4315681653       14.7733029650       20.1829742952
  H         4.9861342781       13.1066534215       20.1541280780
  C         7.1406974521       13.3579887512       19.7580557321
  C         3.3204777955        7.7164399296       16.4019733951
  H         1.9929733235       10.6376076594       28.2620895429
  H         1.7174746133       10.7848458930       30.0173653003
  C         2.9303242538        9.1416452476       29.5247375417
  H        -2.8626051639       10.8078236903       27.1731416955
  H        -3.4214221272       10.7907406444       28.8226645729
  C        -4.2493469693        9.2565408553       27.5533379454
  C        -1.7006784478       15.3783397581       32.0487434555
  C        -1.8764652908       13.1992698628       33.1584541753
  H         7.9775019970       13.7888212554       20.1890329268
  H         7.3032998240       12.2468971348       19.8793745384
  C         7.0394962851       13.6134328139       18.2446994074
  H         3.0209276003        6.7042873017       16.4182198887
  C         3.6867791327        8.1747228892       15.1748666441
  H         3.2295722213        8.7378118785       28.5564678047
  H         2.6418867433        8.2076240407       29.9527606071
  C         4.1208147053        9.6931690795       30.1707890496
  H        -3.9652979846        8.6359554475       26.7152838953
  H        -4.7708787310        8.7345892681       28.2849155779
  C        -5.4363088234       10.1895954455       27.0867538001
  N        -1.6840178604       16.3128721079       31.0315028295
  C        -2.0640956136       15.9665685991       33.2258424959
  C        -2.2410446943       13.8041191039       34.3856965220
  H        -1.9125608807       12.1616606435       33.0607257460
  H         6.7558487585       14.6515394778       18.1392742902
  H         8.0020756527       13.4131240752       17.7716703348
  H         6.2469321468       12.9487975847       17.7748017292
  S         4.1652761280        9.7685674667       14.6196482313
  C         3.7981895512        7.1501790312       14.1615313273
  H         4.5776272404       10.6209940786       29.7689387753
  H         3.9007452004       10.0274773880       31.1949340920
  C         5.2444640544        8.6001373871       30.3684020503
  H        -4.8776992558       11.0222253041       26.5769432532
  H        -5.9744479369       10.5436250910       27.9814662670
  C        -6.4104650742        9.3362505866       26.1832171377
  S        -1.7806351162       17.8014732302       31.6176406938
  N        -2.3009801733       17.3155677677       33.0992109450
  C        -2.3450296481       15.2873333533       34.4358956170
  H        -2.3884470299       13.1659867535       35.2004889958
  C         4.3710682404        9.0537323621       13.0841122840
  N         4.2376148724        7.6797476466       12.9657683626
  O         3.4613156882        6.0022411419       14.3776909982
  H         6.2565184190        9.0562984555       30.1797179173
  H         5.0890087652        7.9679073505       29.5353815028
  C         5.0862079043        8.0183631236       31.7644222217
  H        -5.8720700999        8.7326734258       25.4294944257
  H        -6.9201533046        8.5651317824       26.8418866144
  C        -7.3460313108       10.3896470443       25.5842390441
  C        -2.7179121301       16.1298522319       35.5640018586
  S         4.8983607731        9.9777209391       11.5777120192
  C         4.2496496917        6.8789973316       11.6814495937
  H         5.3689148613        8.8212067133       32.4827083887
  H         4.0328767647        7.9708523002       31.9966263864
  C         5.8479751582        6.6760617982       32.1241007126
  H        -6.7364214529       11.0343482259       24.9149238151
  H        -7.7460588038       11.1066513930       26.3192783194
  C        -8.4965398157        9.7011847022       24.8076801554
  H        -2.3861488778       17.1792743097       35.4707397428
  C        -3.2745983671       15.8676759666       36.8077895150
  H         4.9818680889        7.2086321713       10.9734295040
  H         4.6468030697        5.9086688451       11.9953556320
  C         2.8121084750        6.7475018585       11.1269676444
  H         5.1254643408        5.8535245145       32.2525770000
  H         6.2814031551        6.8162531883       33.1259583219
  C         6.8753632004        6.2532074761       31.0814376580
  H        -8.8612773248       10.3049011383       23.9944182584
  H        -8.1228237988        8.7655835745       24.2987356022
  C        -9.7013583638        9.3810584849       25.7599615124
  S        -3.8643968064       14.3745127845       37.4055589311
  C        -3.2512796883       16.9139316274       37.8886995020
  H         2.7849698499        6.3238973217       10.1436741060
  H         2.2894377074        6.0698245174       11.8020159979
  H         2.3177318393        7.7027704913       11.0475825605
  H         7.3452612612        7.1816265781       30.6547140681
  H         6.3575161492        5.5102304386       30.3773147708
  H         7.7066150138        5.7255423381       31.5541829290
  H       -10.2369001466       10.3303948259       25.9857325911
  H        -9.3894254772        8.9492781502       26.7782693806
  H       -10.5217601401        8.8116081137       25.3185701402
  C        -4.0861610860       15.1316312026       38.9274029719
  N        -3.8229643746       16.4900324932       38.9665986876
  O        -2.8006101160       18.0178818389       37.7306166890
  S        -4.7085325965       14.3403136735       40.3158220174
  C        -3.8312578657       17.3214429277       40.2508757718
  H        -3.8642221195       18.3880921685       39.9977506896
  H        -4.7235332213       17.2665272289       40.8324967699
  C        -2.6267648640       17.1281482819       41.0858852156
  H        -2.4593743990       17.8568831906       41.8840750219
  H        -2.6202906658       16.1196459053       41.5515327522
  H        -1.8242990672       17.2117483910       40.4118308731
  H         7.1034141050       11.7391487696        3.7065823950
  C         7.2866228640       10.6676473263        3.6510583012
  H         6.3247135251       10.2733819262        4.1430429556
  C         8.5949896493       10.4205422352        4.4109616710
  C         7.2008560632       10.2594864802        2.2074107950
  C         8.3179077111       10.4814889880        5.9641343127
  H         8.9270506467        9.4832521950        4.1675884229
  H         9.4320036763       11.0953263081        4.1360822249
  H         8.2108332070       10.3508840210        1.8479216241
  H         6.5624307756       10.8275484300        1.4933823757
  H         6.9766115903        9.2097551309        2.0150488073
  C         7.6507609168        9.2570480414        6.4858079206
  H         9.3183979782       10.4888038117        6.4290701180
  H         7.7615978572       11.3659719915        6.2074132858
  C         7.0665094217        9.4927171379        7.9211039946
  H         8.4366074320        8.4366253936        6.4781077066
  H         6.8860972336        8.9345632352        5.8818555880
  C         5.7736044741       10.3122750642        8.0217104281
  H         7.9125331928        9.8632829499        8.4852938304
  H         6.9006119500        8.5111479624        8.3755215725
  C         4.4265056209        9.5202645009        7.7673783629
  H         5.6694911042       10.7643778298        8.9971233265
  H         5.9168634203       11.1835075599        7.4032255715
  C         3.1476957065       10.3850961389        7.4368027838
  H         4.3563617261        8.9103417557        8.6273764759
  H         4.6812743153        8.9296116252        6.8905390755
  C         3.4320029207       11.6541673211        6.7182052855
  C         2.5804431626       11.0854277476        8.6342031137
  C         2.0187688958        9.5323758552        6.6398050630
  C         3.0732594709       12.7763818861        7.4441029448
  C         3.9186248282       12.0420178488        5.5062655488
  C         2.5666150135       12.4297189135        8.6524643337
  C         2.1992944798       10.5716691647        9.8481629783
  H         2.5257474071        9.1751793669        5.7598449991
  H         1.8734572832        8.5216973924        7.0468409335
  C         0.6338293840       10.2895671053        6.4753769672
  S         3.1889260098       14.3175902378        6.7385749386
  C         3.8556248178       13.4366852684        5.2833863337
  H         4.3086629897       11.2321608071        4.8533507690
  C         2.2375639410       13.1898076031        9.7137559332
  H         2.1541534024        9.5096626158        9.8924348715
  C         1.8101667592       11.2882947997       10.9434258084
  H         0.8861697243       11.3486225153        6.4012438580
  H         0.0854658487       10.0833119271        7.3685214130
  C        -0.2077195171        9.8501395603        5.2964893505
  C         4.2351578934       14.1271296634        3.9689125708
  C         1.8552423456       12.6520969352       10.9428651750
  H         2.3621650350       14.2746471815        9.5586146528
  C         1.3267596274       10.9085937272       12.1964649734
  H        -0.9756946601       10.6246168382        5.2294928604
  H        -0.5708626912        8.8756506540        5.5972482110
  C         0.4248790559        9.8520879323        3.8706642400
  C         4.3330085267       15.4702246063        3.7726909183
  C         4.6079712099       13.2691077428        2.8259921845
  C         1.5067086009       13.3569065233       12.1943043586
  C         1.1103292920       12.0357264759       12.9453846891
  S         1.0379442855        9.3983762608       12.9538792762
  H         1.1908607208        9.0834749613        3.8588030218
  H         0.9828009678       10.7493290236        3.6525865480
  C        -0.6175468861        9.4339867872        2.7469073951
  N         4.0862921796       16.4246586832        4.7239256507
  C         4.7156178498       16.0479485888        2.5399654197
  C         4.9673448496       13.7928661634        1.6183194475
  H         4.5182507924       12.2299008100        3.0063530356
  C         0.2597403968       14.1981854875       12.0701089203
  C         2.6761516922       14.0699132868       12.8436296293
  C         0.6368158326       11.6964090175       14.2560867650
  C         0.6184304992       10.3215103728       14.4572272371
  H        -1.1041800425        8.5692733296        3.0694580001
  H        -1.4258410776       10.1366489655        2.7353450245
  C         0.0010739383        9.2788281372        1.4117643785
  S         4.2793578888       17.8436000985        4.0583959088
  N         4.7420730887       17.4499257555        2.5285033867
  C         5.0917218809       15.2680962678        1.3744826941
  H         5.1092874989       13.0850679390        0.8023310280
  H         0.3994182852       14.8926388331       11.2468063948
  H         0.0832977165       14.9366015519       12.8321958605
  C        -1.0235099592       13.2898594550       11.8535594859
  H         2.7890556411       14.9975956961       12.3042020759
  H         2.4244166255       14.2996965080       13.8616311523
  C         3.9460775965       13.2720954765       12.9629665905
  H         0.3503838596       12.4030194767       15.0395735671
  C         0.2059786338        9.5871126422       15.6960522376
  H         0.6985756920        8.3888039906        1.5341547818
  H         0.5640151381       10.1902662611        1.1456872019
  C        -0.8986857332        8.8073215489        0.3195581946
  C         5.2220208507       15.9300957339        0.1171042130
  H        -0.7618582161       12.5705741949       11.0601517846
  H        -1.3354296604       12.7049472786       12.7771580547
  C        -2.1179915814       14.1445883887       11.3653913045
  H         4.2893520266       12.9180317229       11.9880176095
  H         3.8091439185       12.4109488709       13.5884797974
  C         5.0092530607       14.1365125449       13.5676675849
  C         0.1076010060        8.1496463734       15.7974560365
  C        -0.0841461378       10.3117739002       16.9375199313
  H        -0.3841692388        8.2137770424       -0.4443558030
  H        -1.5850481686        8.1485219836        0.7921654822
  C        -1.7069575834        9.9098486281       -0.2971068537
  H         5.1340106302       17.0101621231        0.2301979333
  C         5.4384379020       15.5349751686       -1.2035104710
  H        -1.8323510254       14.5566263702       10.3884750219
  H        -2.2947696388       14.9546908449       12.0885563111
  C        -3.3160815015       13.2283815308       11.1337006413
  H         5.1398498979       15.0393725553       12.9748051985
  H         4.5846272974       14.4749153462       14.5730018659
  C         6.1886418853       13.2330016406       13.6826577941
  N         0.3639746469        7.2031565525       14.7982015065
  C        -0.2596479143        7.5694848579       17.0127419700
  C        -0.4205488847        9.7140381957       18.1022627747
  H         0.0295249347       11.3783896005       16.8541115042
  H        -2.2107385916       10.4267052112        0.4820801874
  H        -2.4861124131        9.5266836929       -0.9228070836
  H        -1.1004749780       10.6262141749       -0.8612423517
  S         5.7563180439       13.9835191141       -1.7146770755
  C         5.4915890432       16.5665147441       -2.2617681675
  H        -2.9591633062       12.3061936865       10.6782127346
  H        -3.6824839098       12.9245607960       12.0783907027
  C        -4.3714659850       13.8042758351       10.2514703904
  H         6.6142138958       13.0480832822       12.6867365282
  H         5.8300930167       12.3092423294       14.1038821793
  C         7.3754439893       13.7495428571       14.5277061354
  S         0.1412391106        5.7321967117       15.4369055037
  N        -0.1798430225        6.1571053349       16.9298243294
  C        -0.5230711483        8.2430739190       18.2023816119
  H        -0.4726602913       10.3994961390       18.9707453428
  C         5.9243104007       14.6324118478       -3.3475132220
  N         5.8497505456       15.9563481271       -3.4102455881
  O         5.4380793036       17.7718502777       -2.0543669222
  H        -5.0607027695       14.5373156165       10.7523068853
  H        -3.9722572485       14.4100227246        9.3901654242
  C        -5.3179054973       12.7681042850        9.6842923268
  H         6.9215523820       14.0065979265       15.4543080388
  H         8.1733863170       13.0397283084       14.7053195989
  C         8.0476071760       14.9099786480       13.7530851190
  C        -0.8378787712        7.4951719134       19.3376741876
  S         6.3580466288       13.7286917009       -4.7942079910
  C         5.9724300295       16.6817017266       -4.7049273572
  H        -4.9571071795       12.0774640199        8.9482768141
  H        -5.5968790729       12.0355706217       10.3094828640
  C        -6.6155146812       13.3120032659        9.0994122026
  H         7.6784573825       15.1383493426       12.7483336048
  H         9.0216694214       14.6294644847       13.7273012099
  C         7.7739695503       16.1406949117       14.5506019214
  H        -0.6742841093        6.4258953221       19.2328671412
  C        -1.3685885131        7.8788880374       20.5643397042
  H         6.6440456268       16.2618396772       -5.3936288399
  H         6.2045439471       17.7586080673       -4.5151016596
  C         4.5681544414       16.8203934787       -5.3400774436
  H        -6.8828639078       12.9749152407        8.1066496544
  H        -6.5995624128       14.4324493383        9.0491048747
  C        -7.8930862313       13.0399098987       10.0107876769
  H         6.6766859381       16.3026047250       14.6822224945
  H         8.2478780898       15.8685924871       15.4883760595
  C         8.2773950929       17.4266710018       13.9600832672
  S        -1.7832543058        9.4481941686       21.0185601329
  C        -1.4958289002        6.8877149584       21.6229380031
  H         4.0699948362       15.8217274647       -5.3208397636
  H         4.6627683295       17.2128158227       -6.3724133576
  H         3.8963862097       17.4297153788       -4.7074872756
  H        -8.6553432224       12.4831326799        9.5229572417
  H        -7.6639102777       12.6405181756       11.0391406560
  H        -8.3221780699       14.0273619537       10.2153027205
  H         7.6127712330       18.2349883513       14.2355787724
  H         9.3082136579       17.5232955297       14.4453621152
  H         8.2495451878       17.3574032372       12.8863119412
  C        -2.3256457783        8.6884787262       22.5913723601
  N        -2.1757376113        7.3734102247       22.6620365846
  O        -1.1081129348        5.7332903047       21.4284104067
  S        -3.1851111703        9.6168881693       23.8471787020
  C        -2.4213071204        6.5842356854       23.8406541439
  H        -2.5712280966        5.5103967971       23.5706576580
  H        -3.3811568486        6.8524039792       24.2986816552
  C        -1.2786083583        6.6143281455       24.8347300905
  H        -1.0695093039        5.6667353346       25.3431299724
  H        -1.4881240481        7.3367284514       25.6111835306
  H        -0.2845897604        6.8921218605       24.3673036091
