352
i =
  H        -3.3681415762       14.6887737727       16.2902195508
  C        -3.0243423094       13.6271055094       16.2103899251
  H        -3.9414354176       13.1556495196       16.5297570141
  C        -2.0677589247       13.4915455687       17.3402022603
  C        -2.5476323124       13.1479368651       14.8613250596
  C        -2.6744759036       13.8037088159       18.7035592246
  H        -1.8545902502       12.4225433537       17.4137047829
  H        -1.1609796567       14.0847994569       17.2104944900
  H        -3.3533282128       13.0170948821       14.0578865835
  H        -1.8551731722       13.8332653887       14.4474338303
  H        -2.0407790065       12.1886351291       14.9104017094
  C        -1.6229566082       13.5935338409       19.8119477329
  H        -3.5123292351       13.0864739746       18.8364622025
  H        -3.1337562579       14.7541379259       18.8734660582
  C        -2.1773969654       13.6733233529       21.3125606616
  H        -1.1971298496       12.6393914874       19.6936352505
  H        -0.8751950856       14.2794830753       19.6790498367
  C        -1.2093790429       13.0724327746       22.2709243462
  H        -3.1454554872       13.1386899263       21.4358563568
  H        -2.3469345554       14.6965619080       21.5382776447
  C         0.0360847459       13.9608579072       22.4191008329
  H        -1.6735746718       12.8802341398       23.2289733788
  H        -0.9670859588       12.1274486845       21.7479788898
  C         1.1930172166       13.2425326944       23.2368105272
  H         0.4165749479       14.1426866127       21.3826021577
  H        -0.3128062505       14.8745762523       22.9548740596
  C         1.4091914290       11.8870143028       22.5285030191
  C         0.7310871362       12.5515104333       24.4866915197
  C         2.4405379810       14.0961483250       23.3752699303
  C         1.0834899952       10.8370622525       23.3617125231
  C         1.8377983280       11.5164166687       21.2449346516
  C         0.7662377606       11.2268303863       24.6074826920
  C         0.2740257799       13.1207953719       25.6730974107
  H         2.5106507292       14.5339960291       22.4141606624
  H         2.2218684217       14.8299043552       24.1265024540
  C         3.6354618712       13.1986388199       23.7380125494
  S         1.3366135774        9.3696154314       22.6326905397
  C         1.8934843435       10.1501283453       21.1461286475
  H         2.1795115427       12.2059347156       20.5340372861
  C         0.3910986528       10.5397941198       25.7495591976
  H         0.2734899044       14.1974234919       25.7432231154
  C        -0.0523553954       12.4854144219       26.8321419735
  H         3.8820522426       12.4866282787       22.9923333982
  H         3.3895473871       12.6268106673       24.6389009365
  C         4.9517003910       14.0185428072       23.8215485867
  C         2.4393869100        9.4041584035       19.9063876301
  C        -0.0411119877       11.1673455101       26.9445032657
  H         0.2141734266        9.5178832119       25.6260310972
  C        -0.4983040130       12.9187564543       28.0190039222
  H         5.7514787395       13.4650113902       24.3269808305
  H         4.7287047515       14.9181788062       24.3205146044
  C         5.5799976582       14.4070551825       22.4430671873
  C         2.3026651363        8.0543374606       19.6023360685
  C         2.9531870628       10.2361555124       18.7766481947
  C        -0.5784486018       10.4741332010       28.1165227606
  C        -0.7812101391       11.8160656704       28.8386732874
  S        -0.6516306847       14.3487258164       28.9142665792
  H         6.3993690374       15.0928839594       22.7217268292
  H         4.8249582773       14.9942517671       21.8217131493
  C         6.1581745658       13.1954552184       21.8019048781
  N         1.9070628976        7.1034770672       20.5613272199
  C         2.5947928340        7.5686531710       18.3352127414
  C         3.2528314506        9.7180023568       17.5602449618
  H         3.1437375203       11.3377665874       18.9010013589
  C         0.5103167078        9.7203463144       28.8870306480
  C        -1.9842351623        9.7688234882       27.8437663896
  C        -1.2366088936       12.1832706395       30.0971880514
  C        -1.3187319751       13.5251372978       30.2345452317
  H         7.2247526504       13.2915536434       21.7889728401
  H         5.8807800135       12.1817374834       22.2846787984
  C         5.7601427735       13.0618850895       20.3653662852
  S         2.1457366892        5.6347218774       19.8320185456
  N         2.4863337302        6.1358183007       18.3147029648
  C         3.1257796137        8.2965971488       17.2398823872
  H         3.5595085376       10.3771569234       16.8027727851
  H         0.6348285724        8.7146295854       28.4599261219
  H         0.0062606176        9.5338751657       29.8319731050
  C         1.8841014097       10.3729712725       29.0892803260
  H        -1.8139935354        9.0776449837       27.0389336243
  H        -2.2810957708        9.1398190790       28.6538675234
  C        -3.0627055602       10.6883167102       27.4646983783
  H        -1.3572083119       11.4272290499       30.8378301218
  C        -1.5802022873       14.2737519134       31.4786503527
  H         4.6795311746       13.0860786181       20.3153460648
  H         5.9968962600       12.0775151096       19.9096372071
  C         6.5400552410       14.0183868666       19.4760670642
  C         3.3070575215        7.6934133878       15.9760408358
  H         2.2509514512       10.9919513488       28.2461514751
  H         1.8641409574       11.2361818180       29.8373971003
  C         2.9846791877        9.3656483529       29.3231286112
  H        -2.6847030642       11.3937573028       26.7540343919
  H        -3.3691172482       11.2118074576       28.3753710828
  C        -4.2059390289        9.9460847392       26.8324458156
  C        -1.7122054254       15.6876077341       31.6021155310
  C        -1.7878496419       13.5331663666       32.6799533903
  H         5.8733213904       14.7090476285       18.9967902810
  H         7.2307382467       14.5904449290       20.0787418871
  C         7.3727745991       13.1814398009       18.5168496098
  H         3.1558436846        6.6382410123       16.0537690812
  C         3.6159055835        8.0463806197       14.7143261690
  H         2.9830664011        8.7822482995       28.3765928366
  H         2.7451364251        8.5547210734       30.0963996194
  C         4.3769704530       10.0135339567       29.4899961623
  H        -4.0563782058       10.1400725769       25.7954588026
  H        -4.0729963943        8.9223666012       27.0691015177
  C        -5.6516598405       10.4551769230       27.1481999933
  N        -1.6101711628       16.5530322047       30.5206024410
  C        -1.8245541918       16.3306394231       32.7718841747
  C        -2.0348684402       14.1956973697       33.8756845073
  H        -1.8997340886       12.4718553175       32.7062845343
  H         8.0180594446       13.6991301889       17.9149518280
  H         7.8669891315       12.4188741867       19.1050706539
  H         6.7326648535       12.6206278542       17.8283976465
  S         3.9475787964        9.7061163996       14.2087903494
  C         3.7248568620        7.0385739403       13.6227253098
  H         4.5152450628       10.7065275277       28.6765761389
  H         4.5471713743       10.5173530999       30.4318079170
  C         5.4891658213        8.9694084533       29.3213195223
  H        -5.6915938056       11.1597591664       27.9400054212
  H        -6.2895694083        9.5438470808       27.3799653772
  C        -6.3631817616       11.1434017010       25.9730556781
  S        -1.5330066290       18.1143620645       31.1151830969
  N        -1.8567851363       17.7107479659       32.6623445786
  C        -2.0034522492       15.6984712088       33.9898620411
  H        -2.2886148094       13.5655531859       34.7512030196
  C         4.3037695851        8.9799024441       12.6833166276
  N         4.2533599244        7.6312164977       12.5357416551
  O         3.4871466370        5.8672250884       13.7236883478
  H         6.4009049469        9.5281943707       29.0241570682
  H         5.3504049229        8.3375287076       28.4690510184
  C         5.8261849360        8.2042155152       30.6696587845
  H        -5.9344031441       12.0900546536       25.9961048606
  H        -6.2259800420       10.7110655298       25.0219521652
  C        -7.9266909014       11.1805034303       26.1437953082
  C        -2.3150212533       16.4543621697       35.1266089050
  S         4.7790841538        9.8979445122       11.2429990420
  C         4.3288470431        6.8976442680       11.3072450261
  H         6.8905295120        8.2443732249       30.8633896585
  H         5.5903877507        8.8367867918       31.5467812164
  C         5.2998937841        6.7195925298       30.8532157701
  H        -8.3139750942       12.1465760800       25.9484486022
  H        -8.1079734882       10.9569424576       27.1659371423
  C        -8.7504808094       10.2056406900       25.3336367244
  H        -2.1194203591       17.5229441693       35.0486006094
  C        -2.8756173601       16.1201121657       36.3037862125
  H         5.0662908775        7.3157540099       10.6373193096
  H         4.6840613436        5.8645039069       11.3483385642
  C         3.0261668404        6.9066958448       10.4967264167
  H         4.8392280350        6.4058574000       29.9281639987
  H         4.5783484343        6.7906374692       31.6604555097
  C         6.2692958648        5.6289897159       31.3224528816
  H        -8.5790578572       10.3084392836       24.2382436781
  H        -8.3481063456        9.2454902446       25.5289170267
  C       -10.2400996157       10.2385643377       25.8228313491
  S        -3.4763836671       14.4914887425       36.7560870212
  C        -3.0316292369       17.1696294281       37.3672208788
  H         2.7938275725        7.8593960589       10.0830153691
  H         3.0670400825        6.0994479962        9.7167845281
  H         2.1381259929        6.6479640080       11.0330207162
  H         6.9266792923        6.0605501317       31.9764924789
  H         6.9196283611        5.2964565733       30.5029664209
  H         5.7365656971        4.7630047902       31.8247293125
  H       -10.7292521592       11.1667908492       25.8294997129
  H       -10.4622743480        9.8846013466       26.8333986712
  H       -10.8897731897        9.7011241184       25.1355779060
  C        -3.8886676582       15.2153323656       38.3006595266
  N        -3.6665554701       16.5604827651       38.3843246439
  O        -2.8054619114       18.3344808381       37.2276349806
  S        -4.8312053659       14.4771067479       39.5578342837
  C        -3.8700489509       17.3645023690       39.5329147071
  H        -3.9309547774       18.4432817748       39.2255406589
  H        -4.7929446935       17.2189442712       40.0024128022
  C        -2.6992725941       17.2631397104       40.5248777114
  H        -2.3873629631       16.2736081175       40.9946511099
  H        -1.7996214208       17.6477999140       40.0028145468
  H        -2.9198983028       17.9782935834       41.4155625161
  H         7.3510699025       11.5356575928        3.0111785161
  C         7.7498808837       10.5175757749        3.1485105373
  H         6.8765138435        9.9143757838        3.2975845882
  C         8.5764137209       10.3933383332        4.3457714918
  C         8.5027901195       10.0705755777        1.8669939200
  C         7.8026452201       10.7841468083        5.6496666924
  H         8.8825982708        9.3394262151        4.4087465834
  H         9.4260649320       11.0008090596        4.1427941022
  H         9.0907948017       10.9396422285        1.6445631335
  H         7.8444236220        9.8491098551        1.0166732273
  H         9.0661399188        9.1391254859        1.9584613586
  C         7.0912686156        9.6028102305        6.2823131900
  H         8.6118546954       11.1581283772        6.2639593310
  H         7.1046083748       11.6151947293        5.3772541291
  C         6.4887947826        9.7990178506        7.6608642034
  H         7.7463202264        8.6902239108        6.3689414842
  H         6.3310888958        9.3419943366        5.6024247560
  C         5.2001115681       10.5694248689        7.6554579674
  H         7.2548445828       10.4414004809        8.0876285058
  H         6.2950270290        8.8898428914        8.2855119100
  C         3.9848522704        9.8743832434        7.0199706943
  H         4.9451342771       10.7899121772        8.7244838681
  H         5.3967257529       11.5758025708        7.1900416087
  C         2.7542140968       10.8163947569        6.8242029493
  H         3.7263319178        9.0634912677        7.7063777915
  H         4.2855031137        9.4138240746        6.0495415083
  C         3.1900792716       12.1771182142        6.1495699114
  C         2.3725246814       11.5393645737        8.0783201344
  C         1.6034554754       10.1499117777        6.0435306277
  C         2.9390800883       13.2582381692        6.9738623416
  C         3.6847098284       12.6134557984        4.9108231741
  C         2.4262302719       12.8835556912        8.1852314189
  C         1.9448929731       10.9675272044        9.3062622187
  H         2.1526724745        9.8956626392        5.0951314778
  H         1.2744623885        9.2235369043        6.4653821995
  C         0.3810714104       11.0675574243        5.8276054345
  S         3.3922245428       14.7925402290        6.3037165467
  C         3.7773417562       14.0166016492        4.7886852589
  H         3.8208987787       11.9282506152        4.1292596502
  C         1.9950328852       13.5054127945        9.3291697127
  H         2.0815204245        9.9136993916        9.4639060353
  C         1.5553081743       11.5870346356       10.4257072672
  H         0.6318150893       12.0627756138        5.6694178278
  H        -0.1774492698       11.0660043073        6.7908772364
  C        -0.5257592603       10.5001207647        4.7234262880
  C         4.2036354196       14.7337888664        3.4680488343
  C         1.5015895345       12.9042016833       10.5312714619
  H         2.0400787968       14.5790138961        9.3434183545
  C         1.1153495740       11.1097920660       11.6646125961
  H        -1.5276604035       10.8158861152        5.0215266568
  H        -0.5615366598        9.4036723487        4.6738364419
  C        -0.0551431589       10.9622535218        3.3644290114
  C         4.1083052412       16.1531765964        3.2618354751
  C         4.6254219712       13.8731148144        2.3678553324
  C         1.0592155720       13.5632987693       11.8289928294
  C         0.8911340428       12.1713089982       12.5271988233
  S         0.9347335982        9.4891022450       12.4132233397
  H         1.0029752798       10.9876091835        3.2662044332
  H        -0.3543892642       12.0316321419        3.2619546539
  C        -0.7867972525       10.2719185722        2.1805344169
  N         3.7066176169       17.0642894329        4.2787985720
  C         4.3622699697       16.7002573212        2.0224058565
  C         4.9778245991       14.4795904862        1.1715322057
  H         4.8143078554       12.8157412886        2.4833944342
  C        -0.3168621208       14.2875463278       11.5854988936
  C         2.0537306722       14.4692807010       12.4812194059
  C         0.5621644761       11.7490771858       13.7736032520
  C         0.4430483604       10.3816894986       13.8241904669
  H        -1.3572797372        9.4032224808        2.4653011086
  H        -1.5332611019       11.0409876211        1.8471177241
  C         0.1499374176        9.9386810898        1.0137565119
  S         3.7444456756       18.4867482553        3.6053937135
  N         4.0845341875       18.0944537596        2.0395274215
  C         4.7212299226       15.9334052773        0.9043093907
  H         5.5159855135       13.8625490783        0.4135985807
  H        -0.1971352644       15.1486982758       10.9658234964
  H        -0.7491394295       14.5398592092       12.5505200961
  C        -1.3669370820       13.4466702646       10.9266965818
  H         2.4173436346       15.1484537155       11.7003938852
  H         1.5625724869       15.0425771380       13.2967847087
  C         3.3257499639       13.6458897081       12.9692275377
  H         0.4804133983       12.5398315543       14.5292569660
  C         0.1141613967        9.6771838455       15.1132005240
  H         0.4369028828        8.8977936378        0.9659234446
  H         1.0614064187       10.5575216051        1.2174276300
  C        -0.2506263086       10.5111585886       -0.3610247548
  C         4.8748511012       16.6648310995       -0.3229905846
  H        -0.9691123958       12.7441084723       10.2597566079
  H        -1.9307720145       12.8461394558       11.6611488968
  C        -2.3093431521       14.3005965848       10.2584750998
  H         3.7029380760       13.0576157657       12.1357284946
  H         2.9008878921       13.0193469253       13.7128254587
  C         4.4598614712       14.6493489660       13.3348889494
  C         0.0588982226        8.2211310323       15.2741129777
  C        -0.1069339017       10.4106840506       16.4030736469
  H        -0.5511873330       11.5048757632       -0.4029287848
  H         0.5667899503       10.5134785598       -1.1222815304
  C        -1.4084747571        9.8153999771       -0.9063977798
  H         4.6660827923       17.7437741432       -0.3469239413
  C         5.3016886534       16.2546770495       -1.5477548365
  H        -1.9256576703       14.8113688907        9.3735512268
  H        -2.6866682721       14.9678467962       11.0035420013
  C        -3.4403660125       13.4215270903        9.7249295732
  H         4.5940660165       15.2236061978       12.4174068166
  H         4.0154544800       15.2976966555       14.0966484856
  C         5.7646521492       13.8971695432       13.7008543480
  N         0.3926059362        7.3170097924       14.2931064193
  C        -0.3608742673        7.6276218654       16.4279090556
  C        -0.4875486952        9.8222464437       17.5880963036
  H        -0.2597356333       11.5248995702       16.3789584683
  H        -2.2035364951        9.7418309764       -0.1622791087
  H        -1.2580745822        8.7890586390       -1.2282873220
  H        -1.7403056469       10.4563237449       -1.7526001939
  S         5.7032976307       14.6834004093       -2.0824340490
  C         5.3212853420       17.3067838109       -2.6226641943
  H        -2.9306400614       12.7622628441        8.9670146336
  H        -3.8057688524       12.7197760863       10.4424712897
  C        -4.5065769348       14.2478648460        9.0660130687
  H         6.3946877469       13.6725214328       12.9119464105
  H         5.4330977732       13.0274258189       14.2896676036
  C         6.5394983553       14.8385330436       14.6428957827
  S         0.2951071309        5.7629425241       14.9393877353
  N        -0.3316966377        6.2255829395       16.3419980391
  C        -0.7270432192        8.3395188447       17.6106884941
  H        -0.7008027753       10.4501519749       18.4811471250
  C         5.7918681899       15.3749372408       -3.7982889250
  N         5.6702400299       16.7343363764       -3.8211928182
  O         5.0664970297       18.5025106017       -2.4449389579
  H        -5.0069709142       14.7558736015        9.8923199083
  H        -4.1319674653       15.0133192791        8.3960213035
  C        -5.5548642111       13.2777210664        8.4124043183
  H         5.7417088624       15.3150577175       15.3578608278
  H         7.2719428669       14.3041322210       15.2838326067
  C         7.2650186533       15.9696513468       14.0247000880
  C        -1.1305008276        7.5186832541       18.7477368916
  S         6.3694181666       14.4987517329       -5.1742079843
  C         5.6079214384       17.5086928198       -5.0697244425
  H        -5.0835031332       12.7140752724        7.6345676463
  H        -5.9017942679       12.5502877126        9.1682347254
  C        -6.7473345426       14.0366581400        7.8325760363
  H         6.9282175836       16.2988129098       12.9967070408
  H         8.2986843929       15.6381710378       13.9001245744
  C         7.3661011301       17.1712716151       14.9772810249
  H        -1.2319319941        6.4659827615       18.6394270953
  C        -1.4522937265        7.8886845462       20.0544715054
  H         6.2571505449       17.1277185437       -5.9131411101
  H         5.9968746457       18.4530013120       -4.8428967268
  C         4.2414271206       17.5029780207       -5.6693210360
  H        -7.3204311814       13.4470571841        7.1072504031
  H        -6.5832327206       15.0288201805        7.3582251023
  C        -7.6783825100       14.1873358480        8.9748428936
  H         6.6181958860       17.8879529231       14.9627565955
  H         7.2427251731       16.9266328598       15.9820199892
  C         8.5805482374       18.0674302165       14.7010927626
  S        -1.8859964163        9.4026719995       20.5990924842
  C        -1.5036356321        6.8011454348       21.0961347329
  H         3.5370970733       17.8236935556       -4.9215423018
  H         3.9231125105       16.5174419084       -6.0955222914
  H         4.1350897129       18.2607679213       -6.4096043918
  H        -7.3152598060       14.7669835852        9.8103307266
  H        -8.5421338368       14.7674806698        8.5905941355
  H        -8.0735929401       13.3857497094        9.4600591783
  H         9.4861710600       17.5918372488       15.0759926047
  H         8.6848549885       18.3487117025       13.6710089302
  H         8.3585334972       18.9759405217       15.2556994422
  C        -2.2439198653        8.6388612346       22.1925031990
  N        -2.0166531978        7.3755819485       22.1893160343
  O        -1.2914996754        5.6107803585       20.8770446785
  S        -2.8518790647        9.4289681058       23.6128666680
  C        -2.1826225543        6.5455681317       23.4396216389
  H        -2.5490634132        5.5125763068       23.1506703475
  H        -2.8907309215        6.9997222666       24.1423837044
  C        -0.8468938205        6.4243697742       24.1801546970
  H        -0.7892314888        6.9967170792       25.0877302973
  H         0.0383396225        6.5745752481       23.5503830446
  H        -0.8390005599        5.3841591719       24.5500573582
