352
i =
  H        -3.6180444687       14.9122059169       15.8743138823
  C        -3.1675511478       13.9086226857       16.1161843262
  H        -3.9863317916       13.3444426083       16.5233838412
  C        -1.9937850002       14.1193407298       17.0618514828
  C        -2.7194647951       13.4290676116       14.7275117573
  C        -2.5145056004       14.1536217633       18.5607311015
  H        -1.3441907666       13.2700005348       16.8572139597
  H        -1.4714417046       14.9576208200       16.7220090009
  H        -2.3886846363       12.3470540463       14.8359018021
  H        -3.5074718970       13.5679451958       14.0352787166
  H        -1.8552633130       14.0453321581       14.4734199622
  C        -1.4222201040       13.7213673747       19.5399632675
  H        -3.4324569749       13.5906297795       18.6726989459
  H        -2.7353873390       15.1948731878       18.7336284012
  C        -2.0565020542       13.7524179355       20.9509562467
  H        -1.0435930843       12.6938731112       19.3746995347
  H        -0.5274302398       14.2976574872       19.5423751217
  C        -1.1340025012       13.0259542587       22.0598097168
  H        -2.9593245338       13.1605572628       21.0228045645
  H        -2.2824318323       14.7259220432       21.3307522416
  C         0.1335806399       13.9029866284       22.3206481116
  H        -1.7242080969       12.8492179901       22.9658471317
  H        -0.7806071455       12.0535337323       21.6975576935
  C         1.3354306658       13.2543991769       23.0323810798
  H         0.5417717793       14.2110862889       21.3948080156
  H        -0.0291422998       14.8544312321       22.8764654109
  C         1.7067004978       11.9640441844       22.4018062745
  C         0.9818663258       12.5585011161       24.3311503504
  C         2.5339698081       14.1726280092       23.1019886318
  C         1.5825797999       10.8377077973       23.2515474690
  C         2.1490016811       11.5814164805       21.0945582145
  C         1.0694271675       11.2395079121       24.4323304774
  C         0.4991754929       13.1657662729       25.4425799398
  H         2.7529972006       14.7161018035       22.1245255684
  H         2.3775708097       14.8709708959       23.8300454168
  C         3.7838605761       13.3930627176       23.3353163539
  S         2.2082761476        9.3776272604       22.5772487594
  C         2.4355377524       10.2690889123       21.0983730635
  H         2.2330864911       12.3588034894       20.3218481645
  C         0.5708362251       10.6049761755       25.5576095801
  H         0.4799824016       14.2141803243       25.4376008390
  C         0.1580855660       12.5888192468       26.6566170811
  H         4.0779474616       12.7431250804       22.5239541198
  H         3.7312589849       12.7624894108       24.2522953477
  C         5.0116271463       14.2703470752       23.6863697679
  C         2.9591269555        9.6028381753       19.9119660883
  C         0.1829925402       11.2508601315       26.7339996216
  H         0.5375838680        9.5078400454       25.6310238272
  C        -0.1508491369       12.9471982893       27.9612529678
  H         5.7734845270       13.9985838768       24.4908247827
  H         4.5801773469       15.1252740365       24.1854943190
  C         5.5579161849       14.9023807240       22.4587861455
  C         2.8659768341        8.2153113618       19.6015025097
  C         3.2210107357       10.4822839448       18.7541668397
  C        -0.2723015142       10.4595660481       27.9625278625
  C        -0.4779847893       11.7845658552       28.7281339044
  S        -0.6729877707       14.4314194657       28.5938038506
  H         6.1323970762       15.7566041554       22.7467789523
  H         4.7984988247       15.3888468874       21.8554231461
  C         6.3427962457       13.9113451970       21.6117905837
  N         2.4381134021        7.2621181723       20.4347836326
  C         3.2799050392        7.7020089348       18.3762753115
  C         3.4313509540        9.9981362685       17.4742525915
  H         3.5024843310       11.4463115007       18.9379173016
  C         0.8141224048        9.5606082198       28.6412126605
  C        -1.5877539910        9.7744528762       27.6953820877
  C        -0.8887004733       12.2394141136       30.0179976085
  C        -0.9509953925       13.6026707048       30.0832749338
  H         7.3521672404       13.9311657227       21.8305120882
  H         6.0282849169       12.9063535932       21.8129259786
  C         6.0916093382       14.2213160519       20.1399234373
  S         2.6980749273        5.7760101897       19.8095840534
  N         3.2191890078        6.2745626253       18.3236365255
  C         3.4845925785        8.5386359600       17.2794818564
  H         3.5930129915       10.6924743440       16.6758264109
  H         0.8971868784        8.6998091146       28.0050166210
  H         0.3819938557        9.2884962943       29.5787611147
  C         2.1778794844       10.2102283397       28.8384750563
  H        -1.5764678497        8.8698560455       27.0113572810
  H        -1.7824417311        9.3765278163       28.6234068419
  C        -2.7027689334       10.6914722446       27.1954779181
  H        -1.0609113441       11.5297360261       30.7827575829
  C        -1.4185607040       14.3857087174       31.2857283640
  H         5.9578960135       15.3271882442       20.0522859166
  H         5.2028277718       13.6710045991       19.8277620808
  C         7.2195086485       13.7655996790       19.2739004808
  C         3.6387992520        7.9551583534       15.9995163268
  H         2.4879903836       10.6967302363       27.9666891393
  H         2.2065049518       10.9504716748       29.6371863581
  C         3.2179314819        9.1900992450       29.3125263808
  H        -2.4039789555       11.2266548748       26.3345963637
  H        -2.8093761870       11.4769894990       27.9042993702
  C        -3.9829598854        9.9086935679       26.9663752595
  C        -1.5528669751       15.7702714055       31.4081181587
  C        -1.7525654680       13.6119790814       32.4892429741
  H         8.0491558191       14.5146748235       19.3126808369
  H         7.6401051557       12.8300458852       19.6337332457
  C         6.7112999552       13.5922718396       17.8608182626
  H         3.3777592879        6.8875319392       15.9491433341
  C         3.9195035488        8.3937822028       14.7464406504
  H         3.3764951430        8.5434739785       28.5246987894
  H         2.9545759746        8.6773738003       30.1797816275
  C         4.5401523603        9.9291704621       29.4865053308
  H        -3.8584499098        9.1136590241       26.2789307353
  H        -4.3791290532        9.3434682186       27.8819697162
  C        -5.0912710030       10.7508410748       26.3080590923
  N        -1.2931372132       16.6315102098       30.3771052848
  C        -1.9075977771       16.4098528220       32.5805286637
  C        -2.1292916046       14.2498177623       33.6798732343
  H        -1.5926350338       12.5265134542       32.5979886364
  H         6.6789578323       14.6266582091       17.5462297103
  H         7.4801314922       13.1052473698       17.2394162886
  H         5.7184806311       13.0703647901       17.8575420876
  S         4.3085784415        9.9984587487       14.2403953925
  C         3.8461985661        7.3968287025       13.5817624035
  H         4.6625938370       10.7331789708       28.7638833206
  H         4.4287787871       10.3459766020       30.5018270048
  C         5.7658563537        9.0045914038       29.3249325727
  H        -4.5995567995       11.2065184258       25.4526566481
  H        -5.4101102305       11.6261742600       26.8696470588
  C        -6.2778655111        9.8918718891       25.9734630314
  S        -1.4750600325       18.1429453099       30.9029112535
  N        -2.0194251626       17.7711810098       32.4443229998
  C        -2.3481683176       15.7406060133       33.7246925591
  H        -2.4303111088       13.6475878535       34.5504512308
  C         4.4579144482        9.3433857591       12.5794746873
  N         4.3193346199        8.0000071193       12.4765984038
  O         3.5025020039        6.2108114855       13.6689965256
  H         6.6221043588        9.4675217708       28.9143649182
  H         5.6030967346        8.3855736674       28.5018423409
  C         6.0567747559        8.2488259453       30.6169134664
  H        -5.9135634925        9.2985230147       25.0900351772
  H        -6.5599066122        9.3481936284       26.8743094922
  C        -7.4372455980       10.8080074191       25.4856376069
  C        -2.6083653546       16.4732167563       34.9536202666
  S         4.8812702087       10.3441651953       11.1873946463
  C         4.3544013268        7.3440094938       11.1786047663
  H         7.0952482895        7.9472850265       30.5547334276
  H         5.8690829719        8.7894324652       31.5267720817
  C         5.3687638854        6.8925632304       30.8167080535
  H        -6.9986292044       11.3578343923       24.6929323914
  H        -7.6968572571       11.5561786744       26.1726774235
  C        -8.7427886897       10.0689856870       24.9900504313
  H        -2.0563354407       17.3840195924       35.0800031022
  C        -3.2858417176       16.1241873818       36.1119013310
  H         5.2581045099        7.5565908834       10.6435947728
  H         4.5063396200        6.2534676795       11.2768477266
  C         3.1050690838        7.6954195140       10.3812066429
  H         5.4878709375        6.3363646544       29.8767683093
  H         4.2754123201        6.8928133422       30.9303254739
  C         6.0446244733        5.9823904189       31.8634868906
  H        -9.2103939858       10.4803777520       24.1521956486
  H        -8.2966229687        9.1164917762       24.6792688680
  C        -9.6705567213       10.0203229392       26.2160897920
  S        -4.2695136571       14.7221977348       36.3014385328
  C        -3.2924306636       17.0253925123       37.3339943335
  H         2.3527430811        6.9154156166       10.6247830874
  H         2.6665439988        8.7267987108       10.5805076772
  H         3.3205614431        7.6164048267        9.2988213485
  H         6.3686426848        6.5301246814       32.7783841072
  H         6.8725823431        5.4365206783       31.4089774986
  H         5.3767268548        5.0896174789       32.0400815892
  H        -9.4781786616        9.2079637108       26.9436201087
  H       -10.7531531245       10.0910819458       25.9193857675
  H        -9.6732663434       11.0367073491       26.7298956663
  C        -4.5659486156       15.2029151734       37.9637124401
  N        -4.0712124010       16.4385954964       38.2854915721
  O        -2.7206382039       18.1351338406       37.3766556910
  S        -5.4148473518       14.3513007944       39.1916449739
  C        -4.1908021655       17.0206400143       39.5895675922
  H        -4.3977095663       18.0608470038       39.5602823541
  H        -4.9346998772       16.5677711032       40.0924835067
  C        -2.9478055201       16.7158644025       40.3842089375
  H        -2.4926626386       15.7796910729       40.0668706197
  H        -2.2618807895       17.5288585586       40.1539975667
  H        -3.1034407601       16.6666251889       41.4304858715
  H         7.7279707117       11.7901769315        3.9950615659
  C         8.3368220808       10.9118329001        3.8106204873
  H         7.5825558647       10.1670922664        3.7539858778
  C         9.1340661061       10.5692915492        5.0810048823
  C         9.2991145057       10.9784506458        2.5914093103
  C         8.4870588981       11.0040269697        6.4011563357
  H         9.3950525884        9.5119584199        5.1286130768
  H        10.0621998235       11.1306759057        4.9744900603
  H        10.1615602254       11.6137324847        2.8932754614
  H         8.8803804059       11.3136901082        1.6591416232
  H         9.6974121056        9.9795758292        2.4409412548
  C         7.5878272661        9.9044944202        6.9471019098
  H         9.2989535882       11.2964673490        7.0295052234
  H         7.7779088724       11.9451950943        6.3044254106
  C         6.8187945648       10.3776623255        8.1804525923
  H         8.2162896182        9.0749064121        7.1582345693
  H         6.9675160692        9.5991545593        6.1122538787
  C         5.6451688236       11.2706539893        7.9714734189
  H         7.4509614721       10.9684202471        8.8296730015
  H         6.5380470268        9.5077797601        8.7184027960
  C         4.5311090764       10.6229311186        7.1316524717
  H         5.2363850571       11.6021600454        8.9197659519
  H         6.0217254554       12.0889096680        7.4011489790
  C         3.2974207459       11.5601012000        6.8769606252
  H         4.2590188018        9.7182451855        7.7383851613
  H         4.9160073983       10.2148551103        6.1792753897
  C         3.7586686930       12.8274166883        6.2128154620
  C         2.8804079618       12.3192694131        8.0890136434
  C         2.0401246757       10.9476784145        6.2597967251
  C         3.5463318474       13.9321419535        7.0273179175
  C         4.2584923815       13.1641813069        4.9202295177
  C         2.9692834736       13.6242993954        8.2718609138
  C         2.3470699133       11.6086966970        9.1563093873
  H         2.3840380743       10.3034150143        5.4348265821
  H         1.5447216524       10.3400582270        6.9945115105
  C         1.0201791553       11.9856279037        5.7181683739
  S         4.0528160856       15.4028329689        6.2507129252
  C         4.3885841898       14.5438025779        4.8087812866
  H         4.3446500378       12.3550559561        4.2157504236
  C         2.4937907805       14.1684430853        9.4087479962
  H         2.4651599400       10.5288886485        9.1554451864
  C         1.8857028779       12.1445088367       10.3407566080
  H         1.4869139733       12.8705422706        5.1765966288
  H         0.4701060849       12.3748248475        6.5615750339
  C         0.0722245976       11.3840543058        4.7375852511
  C         4.7873269984       15.1845759625        3.5036532555
  C         1.9345136968       13.4949654622       10.4962062585
  H         2.6631141942       15.2141959618        9.5810563214
  C         1.4360121701       11.6883476536       11.5845318275
  H        -0.6454248088       12.1891193656        4.5694065060
  H        -0.4328448725       10.5721060342        5.2974446820
  C         0.6101036851       10.9003261053        3.4518288102
  C         4.6827248107       16.5744200915        3.2267686876
  C         5.5096539857       14.4099630237        2.4289490403
  C         1.3294159123       14.0986933770       11.7208809338
  C         1.1320959049       12.7667374265       12.4334509226
  S         1.2184573353       10.1919646282       12.3935617675
  H         1.2521814512       10.0494060051        3.6929380955
  H         1.4163232100       11.5666462798        3.0491988970
  C        -0.3661897715       10.6110810254        2.3346281019
  N         4.2298316350       17.4627557722        4.1821488354
  C         5.0218742922       17.1286554157        2.0139600232
  C         5.8612769713       14.9545405191        1.1743048737
  H         5.8110163382       13.4205479297        2.6403865852
  C         0.0071692496       14.7231949621       11.4289705027
  C         2.2327651845       15.0198536524       12.6368136351
  C         0.7703013760       12.3471731793       13.7501502442
  C         0.8064067759       10.9630826646       13.9212454040
  H        -1.0579152583        9.9629034226        2.7386973800
  H        -0.8450893067       11.6455128198        2.2203979126
  C         0.2681190405       10.0606344485        1.0752037405
  S         4.1780091550       18.9260654513        3.4567769371
  N         4.7944251534       18.5300331532        2.0024536837
  C         5.4696336894       16.4024796581        0.9041848610
  H         6.1660875881       14.3189289510        0.4045976937
  H         0.1632565519       15.5438186257       10.7681107113
  H        -0.3820310441       15.0316283137       12.4195206779
  C        -1.0706633120       13.8711940426       10.8131928876
  H         2.5525600096       15.9189075853       12.0286904918
  H         1.6026493525       15.4543637405       13.3736508060
  C         3.4166275575       14.2706113726       13.2130929338
  H         0.6808544567       13.1107125204       14.5344850324
  C         0.5404117303       10.2776225937       15.1825482454
  H        -0.0230427321        9.0727183613        0.8713413643
  H         1.3548014056       10.0535448966        1.1183817600
  C         0.0072557056       10.8630119036       -0.2414545001
  C         5.7737141220       17.1219457280       -0.3414017852
  H        -0.7143395832       13.2730902614        9.9701184989
  H        -1.4446173931       13.1895846696       11.6239570483
  C        -2.3066336645       14.6399837458       10.3135058743
  H         4.0500534007       13.7137023451       12.4884273375
  H         3.1510590446       13.5928984285       13.9903580039
  C         4.2879796869       15.2093798205       14.0670966746
  C         0.4757947268        8.9090156884       15.3244317723
  C         0.4181578452       10.9989686597       16.4579472150
  H         0.3990528196       11.9017283333       -0.3450752983
  H         0.4642720518       10.2822122432       -1.0652423836
  C        -1.4737851405       10.8620305629       -0.6078166565
  H         5.7605221119       18.2116057914       -0.3183302911
  C         5.8501915624       16.6355292800       -1.6036263932
  H        -2.0178350103       15.3601149493        9.5799320748
  H        -2.6456284756       15.4269439401       11.0406665405
  C        -3.3992243231       13.6588020133        9.8834342189
  H         3.7822004009       16.1289714783       14.2645587821
  H         4.5352329076       14.7042859965       14.9905502632
  C         5.6128693147       15.5192975957       13.3447246933
  N         0.7278530996        7.9454398688       14.2751114520
  C         0.2010222367        8.2188121408       16.4693489434
  C         0.1091667996       10.3144307988       17.6611716095
  H         0.4784088274       12.0211920724       16.4503480238
  H        -1.8335235132       11.4443989654       -1.4745745621
  H        -2.1161713102       11.2645619774        0.1943543042
  H        -1.7219063756        9.8834749183       -0.9827149138
  S         5.9131076157       14.9222531187       -2.0856873746
  C         5.9308516968       17.6108751660       -2.7048547870
  H        -3.1589880344       13.2276738973        8.8963753816
  H        -3.5408942023       12.8931194896       10.6561523315
  C        -4.7204216298       14.4002829756        9.7000642932
  H         5.4359773736       15.5212208290       12.2723669332
  H         6.3685723167       14.7765917855       13.6395352556
  C         6.2610148721       16.8919282689       13.5484482799
  S         0.5046186658        6.4211687542       14.8334363177
  N         0.2199915534        6.8379376144       16.3228031730
  C        -0.0775525017        8.7866448751       17.6680136859
  H        -0.0884042418       10.8028825197       18.6527550314
  C         5.9560369380       15.6465966673       -3.6266436292
  N         6.0811943539       16.9657424051       -3.8354531455
  O         6.0151447403       18.8593871329       -2.5288305869
  H        -5.0081710640       14.7504096292       10.6891261516
  H        -4.4475120627       15.3083265718        9.2623716375
  C        -5.8458311772       13.6448288490        9.0163346283
  H         5.8527561008       17.5744397205       12.8440691504
  H         5.9092345527       17.4178750383       14.4221275031
  C         7.8610115885       16.8088740443       13.4133811247
  C        -0.4183238539        7.9678824890       18.7847350815
  S         6.2906763219       14.6409406116       -5.0394156501
  C         6.0412129007       17.6086167597       -5.1452366346
  H        -5.6670105059       13.2104730798        8.0348347996
  H        -6.0469921585       12.7089278742        9.5109514641
  C        -7.1381690130       14.3847404801        9.0553977754
  H         8.0966507429       16.8994888463       12.3397489232
  H         8.2436476908       15.8906281558       13.8000315833
  C         8.7031677072       17.8331690088       14.1656360378
  H        -0.0592996563        6.9965190207       18.7425974722
  C        -1.0334420528        8.2557746130       19.9830041273
  H         6.7858946772       17.1093264114       -5.7981288558
  H         6.3231938886       18.6353407921       -4.9919886757
  C         4.6128898326       17.5839885029       -5.7365068731
  H        -7.9420458759       14.0318204847        8.3104812643
  H        -6.8325260099       15.4274706315        8.7654009070
  C        -7.8099535333       14.4487449960       10.4570926584
  H         9.7170018406       17.4798751881       14.0505482736
  H         8.6805578755       18.8641018282       13.6871452410
  C         8.3538705424       17.8090314903       15.6463048488
  S        -1.5852441304        9.7527900381       20.4946575078
  C        -1.1685658556        7.1914733296       20.9647186795
  H         4.0924070710       18.3064062515       -5.1717495749
  H         4.0478859680       16.6936124584       -5.6949010414
  H         4.5990854937       17.8902155702       -6.7753883491
  H        -7.9479178688       13.4440202510       10.9618708807
  H        -7.0799055171       15.0790917250       11.0186278983
  H        -8.6208668086       15.1647926221       10.3585559785
  H         8.1995774210       16.7814055869       15.9769419091
  H         9.1681355438       18.2275691681       16.1348274608
  H         7.5159100932       18.4451176505       15.8513458725
  C        -2.0837335615        8.9630372984       21.9132863411
  N        -1.7567529907        7.6514224488       22.0580382489
  O        -0.6693706869        6.0547871510       20.8350307657
  S        -2.5376871367        9.9204694259       23.3620247282
  C        -1.8270857084        6.9314212652       23.3182021092
  H        -2.1766142284        5.9504497965       23.0273042212
  H        -2.4731995394        7.2938395440       24.0733867978
  C        -0.4490314912        7.0189237524       23.9445235730
  H         0.3172261139        7.3514590934       23.2214794599
  H        -0.0838063502        6.1187386312       24.4891038709
  H        -0.5091357418        7.8346107017       24.6513303230
