352
i =
  H        -3.9181749575       14.2543478557       16.2984818052
  C        -3.3327836944       13.3463442467       16.1021141343
  H        -4.1150645634       12.6565270680       16.4078214481
  C        -2.1383639050       13.2506423085       17.0016274544
  C        -3.0380534764       13.2846387712       14.6020671227
  C        -2.5917809550       13.9324495356       18.2767259520
  H        -1.8369957264       12.2050400200       17.2567021869
  H        -1.2603177272       13.7788535293       16.6260018104
  H        -3.2571103574       14.2145092915       14.0805639797
  H        -1.9860371641       13.1828189184       14.3637751694
  H        -3.5990711729       12.5824894796       14.0578230679
  C        -1.5448048233       13.5908633201       19.3672912245
  H        -3.5957120373       13.6120758243       18.5340134325
  H        -2.7629283137       14.9698321945       18.1105779795
  C        -2.1416991899       13.7224576147       20.8360878120
  H        -1.3524031520       12.5804376269       19.2971234869
  H        -0.6649423788       14.1143313430       19.1376435554
  C        -1.4276354000       12.9302944596       21.9163589007
  H        -3.2219104046       13.5248810307       20.7926999161
  H        -2.0225660651       14.7678431562       21.2007618720
  C        -0.2764520226       13.7716595153       22.4930897044
  H        -2.1602145200       12.6197937272       22.7032345272
  H        -1.1597159655       11.8597453330       21.6713599970
  C         1.0058779795       13.0346165813       23.1386462715
  H         0.2044163400       14.1389507609       21.5953892977
  H        -0.6067229125       14.6886568441       23.0675623969
  C         1.3495965132       11.7373633623       22.3975730332
  C         0.6556928204       12.2265602531       24.3607535418
  C         2.2703011529       13.9465507693       23.3663452510
  C         1.1778091875       10.5958625859       23.1217041605
  C         1.7335797659       11.4270644319       21.0448071844
  C         0.7068850931       10.8749850322       24.4201281379
  C         0.2630421675       12.7895190821       25.4955444198
  H         2.5542703240       14.5481232031       22.5494221040
  H         1.9450927811       14.7203868596       24.0058819500
  C         3.4801312963       13.3323373756       24.0033907033
  S         1.6512802056        9.1549368380       22.3383313903
  C         2.0096718059       10.0831193127       20.8628310602
  H         1.8304687014       12.2110829066       20.3284810130
  C         0.4856865049       10.1649597082       25.5362106064
  H         0.1686644622       13.8830062626       25.5392669114
  C        -0.0188713564       12.0972145615       26.6398785938
  H         3.8391753852       12.5248237443       23.3634414281
  H         3.2772819998       12.8542734218       24.9523580174
  C         4.5482059051       14.3144279327       24.2541873969
  C         2.3748942704        9.3662916197       19.5724054340
  C         0.1802251823       10.7742566287       26.7790379379
  H         0.7384288032        9.1508685101       25.5849069671
  C        -0.4890720894       12.4558782891       27.8741826111
  H         5.1538465566       13.7970382926       24.9411829919
  H         4.2237565207       15.2465397777       24.7857237921
  C         5.3306309344       14.8855435386       23.0305773803
  C         2.4147061548        7.9480627195       19.4546186214
  C         2.8773869761       10.2087724321       18.4406340932
  C        -0.2288804432       10.0969955412       28.0707478748
  C        -0.6616873027       11.3639200288       28.7237421043
  S        -0.9042127072       13.9610315974       28.5881404787
  H         5.8478971187       15.7355424284       23.4319175437
  H         4.6531390982       15.3553649643       22.2977991558
  C         6.2829384061       13.9209012174       22.3518577323
  N         2.2374860146        6.9684771448       20.4190770677
  C         2.7658615778        7.4209084511       18.2199819068
  C         3.2920313295        9.6604830765       17.2490857619
  H         2.9614404047       11.2963188602       18.4954250920
  C         0.9723507855        9.4584198106       28.8581009672
  C        -1.4526829270        9.1628852147       28.0066109062
  C        -1.1647730883       11.7799149626       29.9808539072
  C        -1.1776409362       13.1639874185       30.0811243815
  H         7.1756982078       14.5352616800       22.0041799022
  H         6.7360196225       13.2860386846       23.0622564797
  C         5.6521823268       13.2661442687       21.1636543987
  S         2.0822987980        5.5502040918       19.6749889686
  N         2.5226333568        6.0319560671       18.2030594679
  C         3.0428034979        8.1797345879       17.0121457181
  H         3.6431398779       10.3449712866       16.4582061735
  H         1.4261537120        8.6808503788       28.2405572797
  H         0.6309433451        8.8434347910       29.6908394021
  C         2.0176785077       10.4294778221       29.3719377124
  H        -1.1828748723        8.3613371989       27.3420027732
  H        -1.5530217542        8.7626483470       29.0317705769
  C        -2.7051864479        9.8843524266       27.5300326771
  H        -1.6067964026       11.0369026367       30.6201581285
  C        -1.4707725567       13.8357398577       31.3663846935
  H         4.5577556225       13.1550624420       21.1411658872
  H         5.8678836097       12.2147012853       21.3998418407
  C         6.1505261395       13.6724226815       19.7838302301
  C         3.0502984891        7.4656336498       15.7928226767
  H         2.3698088319       11.2228796834       28.7040548994
  H         1.7400959765       10.9220519744       30.2719327734
  C         3.3136295147        9.7108179795       29.7982892843
  H        -2.4568783050       10.2129086554       26.5438889833
  H        -3.0381547844       10.7457886832       28.0991733560
  C        -3.9375517681        9.0119988732       27.1361026813
  C        -1.6571126660       15.2153423883       31.5250100362
  C        -1.5261613988       13.0322741147       32.6179713337
  H         5.5239871933       12.9809620983       19.1321561218
  H         5.8481872136       14.7228408412       19.6407372970
  C         7.6247648615       13.3355206451       19.4870558502
  H         2.8943888756        6.4009927596       15.9107355223
  C         3.3722181956        7.8470150272       14.5141640284
  H         4.0154405578        9.4887963333       28.9177134497
  H         3.0501565304        8.7315686631       30.2932004209
  C         4.0368258128       10.4991161722       30.9692568405
  H        -3.6241681462        8.2311843311       26.4181342414
  H        -4.1785446171        8.3363378218       27.9459155293
  C        -5.1174027170        9.9161977517       26.6948644496
  N        -1.5443817482       16.1291674020       30.5290790429
  C        -1.9611394000       15.8061917254       32.7405256470
  C        -1.9048842208       13.5970615016       33.8371172806
  H        -1.2891321468       11.9317809834       32.6285282958
  H         8.3057282732       13.6215164166       20.3151539165
  H         7.7501297145       12.2602704955       19.4127164814
  H         8.0128507210       13.8731079868       18.6265667219
  S         3.7870918316        9.4228810269       13.9278548039
  C         3.4008248812        6.8250250904       13.5109385854
  H         3.9690835453       11.6090697573       30.7423977505
  H         3.5193870390       10.4251657718       31.8616823184
  C         5.5646963442       10.2569650202       30.9284556352
  H        -4.8155574426       10.5207667807       25.8933892181
  H        -5.4206312155       10.5395630101       27.4945061454
  C        -6.3512538331        9.1944892681       26.1227648398
  S        -1.8356054855       17.6166626727       31.0835458352
  N        -2.1027735430       17.2010036997       32.6243501784
  C        -2.0902658060       15.0546968112       33.9430209692
  H        -2.0103704379       12.9066099007       34.7330064119
  C         3.9494967770        8.6751187145       12.3633739113
  N         3.7232126012        7.3423666976       12.3194820989
  O         3.0582922336        5.6644193609       13.7254030234
  H         5.9895660282       10.9068091049       31.6875087882
  H         6.1459691408       10.4710956302       30.0217619234
  C         5.7936728447        8.7918050892       31.3689967554
  H        -6.1073230817        8.3937812285       25.4242680153
  H        -6.8652338004        8.5791321994       26.9268147406
  C        -7.2505782369       10.1996299917       25.4274131233
  C        -2.3374617153       15.7259421829       35.1389457481
  S         4.2590623777        9.6097402468       10.9056410515
  C         3.8070410609        6.5409313663       11.1229770702
  H         6.7021927724        8.8186445615       31.9743161159
  H         4.9176794682        8.4352856312       31.9261416053
  C         6.1836417292        7.8373373905       30.1623375566
  H        -6.8861737341       10.5583437955       24.4149560530
  H        -7.3754673465       11.0868591566       26.0305030710
  C        -8.5889397823        9.6022229949       25.1006854713
  H        -2.1595220376       16.7878346355       35.1856056329
  C        -2.9470265319       15.3550681240       36.2694788694
  H         4.6195872801        6.8662366815       10.5311501465
  H         4.0353490778        5.5253696194       11.4913924364
  C         2.4638073259        6.5087537482       10.4061038681
  H         7.0983853949        8.1827801249       29.7429624479
  H         5.5838007990        7.9685936967       29.2251343949
  C         6.1489940294        6.3936680408       30.5986758385
  H        -9.1232193245       10.1384816856       24.3082910492
  H        -8.5094319515        8.5270120245       24.9683678955
  C        -9.5898701232        9.8189758224       26.2731495632
  S        -3.7752254895       13.8351385575       36.6387858155
  C        -3.0535743812       16.3523645679       37.4245018356
  H         2.5660335942        7.1422152501        9.5728065073
  H         2.0990193663        5.4953110762       10.1082837338
  H         1.6673391334        7.0859897494       10.9062489722
  H         6.9793408356        6.2114982925       31.3338124164
  H         6.4076144650        5.8663846293       29.6565697167
  H         5.1952589095        6.0897572650       31.0127254385
  H        -9.4384488987        9.0011452800       26.9719008668
  H       -10.6111616159        9.6915106219       25.9300767829
  H        -9.4917184750       10.7647729585       26.8256203504
  C        -4.0979302909       14.5137401290       38.2746515567
  N        -3.8372712017       15.8394888496       38.3804743617
  O        -2.5903880152       17.4978594318       37.4226153545
  S        -4.8209910912       13.5608220635       39.5838068850
  C        -4.0822156787       16.5522743010       39.6931508191
  H        -4.3595313936       17.6061126673       39.4072531205
  H        -4.9731910708       16.1301355149       40.1671624930
  C        -2.8167482773       16.4165307835       40.5224257737
  H        -2.7071392013       15.3987146055       40.8051337792
  H        -1.9701414311       16.7525447651       39.9632913999
  H        -2.9233807207       17.1401636739       41.3553584331
  H         6.7448592730       11.4213637280        3.0326090068
  C         7.2238402269       10.4884205734        2.9818245965
  H         6.5260992828        9.6998349659        3.2162332728
  C         8.3041740640       10.3456236386        4.0371870848
  C         7.7504916979       10.4482246011        1.5195788471
  C         7.8634835486       10.5126443629        5.4851922642
  H         8.6659943993        9.3184137814        4.0123357463
  H         9.1940892785       11.0233860126        3.8553454360
  H         8.0505578381       11.5215355889        1.2265809004
  H         7.0069502683       10.1435121965        0.7432912987
  H         8.5275676477        9.7209306664        1.3957092451
  C         7.2857183704        9.1678342594        6.0028325301
  H         8.7968792625       10.8368926511        5.9923452999
  H         7.1402387754       11.2500010619        5.5104750506
  C         6.6308835822        9.1831724830        7.4108465375
  H         8.1001907221        8.4708939365        6.0497859703
  H         6.6056019295        8.7317551213        5.2337419831
  C         5.3927726709       10.0681910028        7.5362996200
  H         7.4665729880        9.5311529435        8.0932859607
  H         6.3306183186        8.1863637160        7.6633252272
  C         3.9770516383        9.4886696964        7.2849103547
  H         5.4579908032       10.3984014408        8.5593542902
  H         5.5279515543       11.0091934323        7.0190550242
  C         2.7647404763       10.4577038061        7.0292991221
  H         3.6243993297        8.8708636398        8.0672657595
  H         3.9487524153        8.7943943531        6.4842855139
  C         3.1806624623       11.7820277935        6.3317363517
  C         2.3715636116       11.2169561499        8.3001088794
  C         1.4977892113        9.8544456093        6.2628310368
  C         3.0029593891       12.8945485912        7.1827023847
  C         3.7247891096       12.1235331496        5.0664783329
  C         2.5649118067       12.5553368436        8.4119771547
  C         1.7334467059       10.6495816179        9.4227697016
  H         1.7549747160        9.4156991773        5.2489645813
  H         1.0717323066        9.0273159137        6.8388886406
  C         0.3288116704       10.8179515663        5.9908334486
  S         3.3299030515       14.3441382101        6.3673067005
  C         3.8579381384       13.4855154963        4.9643789203
  H         3.7099545604       11.4322153292        4.2772643710
  C         2.1671873064       13.1811665333        9.5881380240
  H         1.4864476241        9.5701182505        9.3414385626
  C         1.4811664223       11.2927915201       10.5883149315
  H         0.7888589756       11.5841725509        5.4691458513
  H        -0.2012092979       11.2071126043        6.8568219638
  C        -0.7675088420       10.2517544895        5.0000709307
  C         4.2373699012       14.1956008009        3.7378882816
  C         1.5750336190       12.6210721997       10.7405649605
  H         2.2433779446       14.2801523643        9.6368366854
  C         1.0952962920       10.9092630583       11.8653603162
  H        -1.6205671478       10.9261601654        5.0404015302
  H        -1.2736275902        9.3356955042        5.4562830429
  C        -0.3264358708       10.0336727122        3.4955787352
  C         4.0878971367       15.5888637891        3.4518972459
  C         4.5097612095       13.4312645184        2.4980293430
  C         1.0503192233       13.3724713164       11.9314849372
  C         0.9082752808       12.0322125556       12.6858471354
  S         0.5649884410        9.4618750626       12.5702195674
  H         0.3466943152        9.1821058023        3.4783685636
  H         0.3097903143       10.9562070760        3.1856752314
  C        -1.5777408207        9.7596864401        2.6740248609
  N         3.8988596818       16.5097428321        4.4453680476
  C         4.4043426202       16.2118249448        2.2339583974
  C         4.6805586932       14.0837551677        1.2701301878
  H         4.4883793875       12.3666268936        2.4825835325
  C        -0.2713104677       14.1214825551       11.7045458585
  C         2.1370354587       14.2882642149       12.6460370156
  C         0.5895325427       11.5837005060       14.0049484845
  C         0.4301837519       10.2232525445       14.0795968490
  H        -2.0472549575        8.9450371052        3.1951026175
  H        -2.2954833849       10.5695859686        2.6578139870
  C        -1.2690645361        9.3070062391        1.2450701121
  S         3.9017312870       18.0194359764        3.8251401312
  N         4.3532294176       17.6356746107        2.3315448096
  C         4.7348118179       15.5518267202        1.0488031457
  H         4.8664258393       13.4508947210        0.4117045847
  H        -0.0591468183       15.0951031644       11.2614146245
  H        -0.6698640749       14.4392086222       12.6251395805
  C        -1.4711224783       13.4088901624       11.0669247217
  H         2.5155073787       15.0618248569       11.9705647469
  H         1.7111981916       14.5858873089       13.5822418165
  C         3.3740970819       13.4481440845       13.0193010932
  H         0.2963815587       12.3509344458       14.6519100871
  C        -0.0343409396        9.4833523499       15.3061625918
  H        -2.0388978531        8.5988570713        0.9121818204
  H        -0.2996924740        8.6959437191        1.3506400705
  C        -1.2585277550       10.3716299619        0.1399507984
  C         4.9871581748       16.2796982054       -0.1631747598
  H        -1.2471856946       13.1671844121       10.0278209745
  H        -1.4360859020       12.3555122722       11.4078259461
  C        -2.8230659350       14.0891040136       11.1594400859
  H         3.8365751478       12.8215312640       12.2487548372
  H         3.1200474204       12.7034502195       13.7982867778
  C         4.5323714055       14.3003181454       13.5454723006
  C        -0.1663030985        8.0801659167       15.4819789633
  C        -0.2285803139       10.2999659663       16.5328964130
  H        -2.2640338303       10.7702808965       -0.0013214961
  H        -0.5937935514       11.2132928545        0.4896831779
  C        -0.6030843808        9.8511688327       -1.1319524728
  H         4.7746076042       17.3301554713       -0.0822776401
  C         5.3105890001       15.8804784611       -1.4588282547
  H        -2.6720466689       15.0131388567       10.6367873441
  H        -2.9765905080       14.3557332186       12.1906549960
  C        -3.9781642566       13.2188678038       10.6053541099
  H         5.1238556069       14.6444256722       12.6903552030
  H         4.1007222191       15.1919450089       14.0748906295
  C         5.3278459990       13.5724482561       14.5436502082
  N        -0.0589857677        7.1087533045       14.5014234855
  C        -0.3981353505        7.5390134268       16.7730973189
  C        -0.5749899468        9.7352199184       17.7870350939
  H         0.0219882580       11.2921059906       16.4601324689
  H        -0.9744309634        8.8903783339       -1.4233053973
  H         0.4827766215        9.8128082053       -0.9796266146
  H        -0.6439057385       10.4927884566       -1.8967780332
  S         5.6777455248       14.2956092860       -1.9929313392
  C         5.2806676030       16.8460645912       -2.5610869291
  H        -3.5204923024       12.4938133845        9.9286105648
  H        -4.3585410197       12.7279280206       11.5034510575
  C        -5.0059261673       13.9289521333        9.7056676305
  H         5.3199152931       12.4237052001       14.4797643344
  H         5.0202795500       13.8668544727       15.5533915024
  C         6.8166731775       13.9112555255       14.4092833026
  S        -0.2823175319        5.6481933522       15.2055211176
  N        -0.5850516538        6.1555935550       16.7401640068
  C        -0.6302999715        8.2961248907       17.9037215137
  H        -0.6397069149       10.3342532908       18.7105989943
  C         5.7057486433       14.8605306907       -3.6017986506
  N         5.5908865861       16.2307958996       -3.7109173871
  O         5.1054619844       18.0167485569       -2.3154662133
  H        -5.7568150056       14.4727963849       10.3451999260
  H        -4.4796992475       14.6577598615        9.1630130939
  C        -5.7727286909       12.9943095738        8.7995452885
  H         7.3471225189       13.2703588131       15.1498806408
  H         7.1534281810       13.6590474459       13.3897810639
  C         7.0513583231       15.2795789239       14.8718137162
  C        -0.8647789697        7.6216988655       19.1499871177
  S         6.2087525484       13.9569716283       -5.0322436489
  C         5.7653297259       17.0031418729       -4.9374503148
  H        -5.3599190600       13.0121860241        7.8229418628
  H        -5.7719477282       11.9703524234        9.1589705255
  C        -7.2292695213       13.4196611151        8.7754473424
  H         7.5281421658       15.3250572355       15.8658176350
  H         6.1613050162       15.8542215263       15.0267248831
  C         8.1106916090       15.9745125898       14.0167449329
  H        -0.5797334254        6.6037707982       19.2428626898
  C        -1.4814315805        8.0712200283       20.3085385265
  H         6.3960389738       16.4104493440       -5.6274289885
  H         6.4570358269       17.8065908173       -4.6472799999
  C         4.5081265484       17.4739276969       -5.6290077254
  H        -7.6768479512       12.8340361897        7.9673112990
  H        -7.3749088919       14.4257559807        8.4351337548
  C        -8.1064988733       13.1347323927        9.9756978874
  H         9.0053567441       15.4224257201       14.1901124400
  H         7.7894958294       15.9789155462       13.0085178579
  C         8.5037672777       17.3532079437       14.3118682527
  S        -2.1565978420        9.6199201394       20.6461670357
  C        -1.6933554261        7.0622523136       21.4083243506
  H         4.2822556065       16.6558257546       -6.3549536258
  H         4.6095058833       18.3477431813       -6.2694323482
  H         3.6542976758       17.5613689816       -4.9786155500
  H        -8.4237170261       12.0984958262        9.8781439992
  H        -7.6776760210       13.2227590876       11.0187644303
  H        -9.0038017223       13.6974144591        9.8790188675
  H         9.0749712029       17.8157751231       13.5405867600
  H         7.7342105504       18.0003338590       14.6504137318
  H         9.1587257913       17.4037190210       15.2166778915
  C        -2.5557610862        8.9401775349       22.2274559084
  N        -2.3429786478        7.6129061540       22.4294578122
  O        -1.3086510414        5.9213349925       21.3441157666
  S        -3.0088088032       10.0447570800       23.5343987695
  C        -2.2683007414        6.9234827115       23.6831947822
  H        -2.3015631227        5.8104994258       23.3635882977
  H        -3.0469674416        7.1065034471       24.4583819870
  C        -0.9027903942        7.0405091797       24.3999834917
  H        -1.0826723136        7.4166398067       25.3551186553
  H        -0.0789807766        7.5981948713       23.9156156300
  H        -0.6671635263        5.9414234474       24.5071843079
