352
i =
  H        -3.8432281015       14.8070743160       16.6377251753
  C        -3.4664182226       13.8115199126       16.4826073397
  H        -4.2690765108       13.1779225660       16.6083035263
  C        -2.3009513319       13.6308318934       17.4535809686
  C        -2.9557054753       13.6536187312       15.0585073961
  C        -2.7401001049       13.4529822677       18.8540704715
  H        -1.7643320147       12.7139809876       17.1322812076
  H        -1.6267115834       14.4573436801       17.3998507548
  H        -1.9957464738       13.2136046044       14.9829528339
  H        -3.6953542884       13.1089422791       14.4470557913
  H        -2.8916378568       14.6620130015       14.5321035763
  C        -1.5099734426       13.3645129468       19.7621988707
  H        -3.3236372107       12.5239248749       19.1445576355
  H        -3.3580415684       14.2247535296       19.2202378893
  C        -1.9241941931       13.4407582634       21.2444048942
  H        -0.8308403800       12.5182539246       19.5090452169
  H        -0.9258143698       14.1651907856       19.6129941407
  C        -0.9891923080       13.0254937978       22.3480139473
  H        -2.8609644442       12.8658903572       21.2863804868
  H        -2.3164426893       14.4478654665       21.3682762454
  C         0.1691808924       14.0088952056       22.5430010888
  H        -1.4500365522       12.9857178998       23.3400675460
  H        -0.6848053451       12.0741837039       22.1310763131
  C         1.3301725911       13.3804690406       23.3985836375
  H         0.5425607147       14.1041623326       21.5475664485
  H        -0.2239102012       14.9416299218       22.9552642821
  C         1.7154761024       12.0286845214       22.6593336826
  C         0.8865795020       12.6304422582       24.6294037939
  C         2.5268374269       14.2965546247       23.6625682405
  C         1.5223195999       10.8747212023       23.5149729430
  C         2.1389747507       11.6414628894       21.4033649691
  C         1.0093263113       11.2851533314       24.7121995378
  C         0.2406441177       13.1776036746       25.7255263857
  H         2.5910155982       14.8633050833       22.7255698579
  H         2.2387661200       14.9742021197       24.4960182948
  C         3.9106490222       13.6883848256       23.9994570280
  S         1.8903924865        9.3565057208       22.7567738764
  C         2.1340114352       10.2360304190       21.2567305377
  H         2.3225620540       12.3787302247       20.6657339225
  C         0.6089658421       10.5822521380       25.8619551655
  H         0.0809149746       14.2400711595       25.7907778411
  C        -0.0877072895       12.5370666986       26.8628738751
  H         4.1215896225       12.9336665191       23.2019921017
  H         3.9211046779       13.1195777650       24.9247369299
  C         5.0179740229       14.7855347623       24.0005904463
  C         2.4481182483        9.5157652169       19.9892523868
  C         0.0242963859       11.1984325686       26.9165924425
  H         0.7273026546        9.5573225401       25.8262855989
  C        -0.7236853834       12.9251547880       28.0419493994
  H         5.8891688605       14.6073455918       24.6503250587
  H         4.6402045094       15.6600839154       24.4083062102
  C         5.4144658560       15.0280312958       22.5604525608
  C         2.6229122547        8.1327712106       19.8464639909
  C         2.9093296580       10.3313297563       18.8660560913
  C        -0.3711799219       10.5225961447       28.1750323321
  C        -0.6767053285       11.8025543013       28.8680887077
  S        -1.3340772986       14.3512959557       28.7843710869
  H         5.7087737876       16.0464202693       22.4781634057
  H         4.5798309881       14.7179066182       21.9309649039
  C         6.6532122872       14.2363528309       22.1671635875
  N         2.4292853515        7.1635149091       20.8474406467
  C         2.9157962453        7.5434211634       18.6262072886
  C         3.1434688656        9.7518839593       17.6332403964
  H         3.0827995755       11.4087104823       18.9492623426
  C         0.8633059050        9.6297647194       28.7385601340
  C        -1.6622891288        9.7304853786       27.9861657347
  C        -1.0912709028       12.1528136279       30.1624335845
  C        -1.3291387182       13.5424222941       30.2906932914
  H         7.4785026315       14.8747438131       21.8827293067
  H         7.1231180499       13.7017081549       23.0529993009
  C         6.2657355856       13.2186159507       21.1491283495
  S         2.6338412750        5.6431741122       20.2006152677
  N         3.0332750455        6.1883364896       18.6985932637
  C         3.0959680176        8.2571735771       17.4888645769
  H         3.1183357416       10.4154578631       16.7528769003
  H         1.1954523069        8.8972310517       28.0278121574
  H         0.5244701110        8.9572960600       29.5549498193
  C         2.0711282171       10.4807837970       29.1940687859
  H        -1.5598314116        8.7547404795       27.5808372472
  H        -2.0728438270        9.6719610525       28.9577808754
  C        -2.8013606253       10.4417416322       27.2558408016
  H        -1.1730890712       11.4064979942       30.9517277337
  C        -1.7447024452       14.1938760575       31.6156040417
  H         5.3635941785       12.7056336055       21.2270553940
  H         7.0275142214       12.4159156986       21.2184711215
  C         6.3952346057       13.7425320234       19.6860668595
  C         3.3597902926        7.5587122869       16.2133550640
  H         2.4119452021       11.1175185782       28.4317736243
  H         1.6877097890       11.0677622523       30.0664918299
  C         3.1148043634        9.5487363631       29.8574893733
  H        -2.4613544309       10.6976962083       26.2450513340
  H        -3.2646612322       11.3060126335       27.7930292518
  C        -4.0414610052        9.5489677096       27.0658971203
  C        -1.8881742026       15.5893904893       31.7804732632
  C        -1.8827627520       13.3413965706       32.8211009837
  H         5.7322503227       13.1984461785       19.0591842232
  H         6.0079390286       14.7770918595       19.7840806712
  C         7.7872866800       13.5965121294       19.0860973186
  H         3.3531051678        6.5165736805       16.2690496662
  C         3.7743993811        8.0811295091       15.0228943151
  H         3.6497829208        8.8827213990       29.1763389079
  H         2.5933205394        8.7678098545       30.3097005074
  C         3.9946220117       10.0033022840       30.9384634329
  H        -3.8647833399        8.8858555996       26.2938438963
  H        -4.2993099538        9.1058288614       28.0114584590
  C        -5.2166982488       10.4508369100       26.6467167068
  N        -1.6368156395       16.5069578340       30.8300769516
  C        -2.2116969822       16.1135784850       33.0053100773
  C        -2.2286135664       13.9179815109       34.0421600254
  H        -1.6494232845       12.3213940163       32.7210148233
  H         8.5400296648       14.0432168416       19.6887872335
  H         7.9381960079       12.5487090682       18.9200839085
  H         7.8786347471       14.0721249670       18.1034853572
  S         4.1731937552        9.6843965720       14.5570215159
  C         3.8529389301        7.1495275720       13.8105081721
  H         3.8726986140       11.0809361051       31.2032551468
  H         3.7517888734        9.5037525125       31.8762493982
  C         5.4901260512        9.8740513501       30.6712475422
  H        -4.8929217161       11.1653578941       25.8933163646
  H        -5.6784794020       10.9678684860       27.4833680779
  C        -6.4319435566        9.6916897698       26.0165340413
  S        -1.8637064896       18.0075952974       31.3844762602
  N        -2.2625043308       17.5533797548       32.9318884957
  C        -2.4398977736       15.3828345865       34.2169518518
  H        -2.2914685142       13.2812173867       34.9543172108
  C         4.5033605379        9.0830505447       12.9386917978
  N         4.3736375230        7.7512565439       12.7650603470
  O         3.5865726278        5.9198015537       13.8086379973
  H         6.0196941118       10.5924662360       31.2371149058
  H         5.7413866572       10.1373108515       29.6432345174
  C         6.1660742162        8.4849247104       30.9300429010
  H        -6.1037369396        9.2212042004       25.1174553543
  H        -6.6989741193        8.8086133176       26.5955703522
  C        -7.5733624463       10.5958944199       25.8072228121
  C        -2.6354279323       16.1011477098       35.4329359405
  S         4.8274411926        9.9390494518       11.5073556783
  C         4.5922332425        6.9811251593       11.5590114940
  H         7.1081240769        8.3299828199       30.3330581573
  H         6.5580143258        8.6494165890       31.9591512633
  C         5.2744383666        7.2100209721       30.7380822912
  H        -7.1461880014       11.4640062118       25.3018452937
  H        -7.9434255694       10.9686244936       26.7611381652
  C        -8.6221921062       10.0389913970       24.8584975682
  H        -2.3308644698       17.2069095152       35.4742369534
  C        -3.0293888319       15.6971685394       36.6797411398
  H         5.3371516915        7.4668867472       10.9371899779
  H         5.1179450578        6.0160726426       11.7734589154
  C         3.2841853945        6.8003172138       10.7330091169
  H         4.9742283965        6.9938569696       29.7188674580
  H         4.3931446582        7.3440680973       31.3833536465
  C         6.1275851257        5.9559368748       31.2358051505
  H        -8.8501537606       10.6228078854       23.9817657575
  H        -8.3976072589        9.1094590409       24.3498749787
  C        -9.8850762606        9.8165181767       25.6805560604
  S        -3.5292961134       14.1384753448       37.2167971092
  C        -3.1908078885       16.7247196574       37.7128371260
  H         2.9418934118        7.6736649271       10.2132924838
  H         3.3233848806        5.9400280928       10.1130857625
  H         2.4697417664        6.5895756208       11.4051951669
  H         7.0764847186        5.8447479572       30.6686977135
  H         5.5557660343        5.0228551677       30.9291509610
  H         6.2543558552        6.0182440148       32.3129457797
  H       -10.7432358112        9.6454515197       25.0611031214
  H       -10.0661747004       10.6241157966       26.4061971408
  H        -9.7775948711        8.8851951698       26.2339524492
  C        -3.9673212398       14.8475008768       38.7309302318
  N        -3.7506059302       16.1988408897       38.8146766935
  O        -2.8206929893       17.8758789150       37.6269291406
  S        -4.4404638867       14.0342442238       40.2261023239
  C        -3.9117617907       16.9437444409       40.0920851266
  H        -4.0658979994       18.0041684671       39.8454708756
  H        -4.6961039999       16.6443842306       40.7979272005
  C        -2.5768381141       17.0345830870       40.7617997323
  H        -2.0408771008       16.0967350687       40.7994173517
  H        -1.8847547007       17.5082144303       40.0559474095
  H        -2.6385226027       17.5072158028       41.7274599129
  H         7.6892774464       11.4859160006        3.3772192830
  C         8.2816807111       10.5523464894        3.3577314794
  H         7.5120461223        9.8556915092        3.4137184447
  C         9.1826228427       10.4722467587        4.5540655391
  C         9.0114491817       10.3672329906        2.0461905990
  C         8.3147417956       10.7047307383        5.8931907947
  H         9.7728286993        9.5467836236        4.6544486671
  H         9.9995078013       11.1624635772        4.5610600846
  H         9.8014264846       11.0675942396        1.9707830918
  H         8.4184204898       10.6497514401        1.2387721152
  H         9.4122472614        9.3477854849        1.8180145293
  C         7.7232078603        9.3508073517        6.3570615439
  H         8.9261837783       11.1759227108        6.6567869847
  H         7.4421025313       11.3154582374        5.5900417322
  C         6.9648530616        9.4320567218        7.7303710559
  H         8.4257010231        8.5612877545        6.2119634505
  H         7.0067305059        9.1054062149        5.6223903098
  C         5.7579714903       10.3316374674        7.7837047254
  H         7.7667823688        9.8042372490        8.3609864650
  H         6.6353610254        8.4427946007        8.0791293079
  C         4.5420856101        9.6410196465        7.1914337574
  H         5.6778766794       10.4196450742        8.9047614081
  H         5.9414658503       11.3494671277        7.4409881372
  C         3.2841639709       10.5977813052        7.0079120729
  H         4.2107322532        8.7884103616        7.7923536063
  H         4.8578922245        9.1642179831        6.2728311466
  C         3.5506138058       11.8883883766        6.2357924050
  C         2.8170936910       11.3232559546        8.1737558018
  C         2.0926873773        9.9225080273        6.3311715024
  C         3.3833768568       13.0029323378        7.0281615473
  C         4.1044803066       12.2488180483        4.9919573218
  C         2.8344629996       12.6408852579        8.2521829096
  C         2.2061890566       10.6803243544        9.2129120040
  H         2.5237859480        9.4170459201        5.4711310574
  H         1.6135208193        9.2215649244        7.0669721291
  C         0.9528847031       10.9142640761        5.8608233154
  S         3.8582840392       14.4629879111        6.2803588222
  C         4.2835213862       13.5894401290        4.8810165133
  H         4.2624960949       11.5052742103        4.2428189403
  C         2.3855873048       13.2528693111        9.3671380735
  H         2.1186258103        9.6407597864        9.2581160561
  C         1.8952770878       11.2280010863       10.3705670732
  H         1.3504044641       11.7492781221        5.3741859310
  H         0.4928747273       11.3677977667        6.7751000688
  C        -0.2502967003       10.4400556831        5.0069800744
  C         4.6896943448       14.2844701469        3.6425053965
  C         1.9241942716       12.6040865363       10.4919217572
  H         2.5462978357       14.3355164727        9.4458301631
  C         1.4035845887       10.8373141586       11.6207772162
  H        -1.1948219923       11.0538097005        5.1010703051
  H        -0.5883459333        9.4746414953        5.3402923893
  C         0.0308095402       10.1090635415        3.5594519492
  C         4.6629123127       15.6967265071        3.4264064649
  C         5.0522973762       13.4787140645        2.4722842103
  C         1.4731768915       13.2940410225       11.7814182917
  C         1.1705495400       11.9252226877       12.4517975188
  S         1.0114738986        9.3939184426       12.3427087403
  H         0.5812538707        9.1554091332        3.5021058729
  H         0.6533881132       10.8739649846        3.0944617502
  C        -1.2272439485        9.9548569097        2.7124487697
  N         4.3597085423       16.6804762642        4.4325786879
  C         4.8533781719       16.2808381721        2.2157132842
  C         5.1329917030       13.9966991127        1.1842792783
  H         4.9112684943       12.3822364863        2.5451768332
  C         0.1563620345       14.0597827849       11.5046608723
  C         2.5127221332       14.1353500917       12.5147117393
  C         0.7849732504       11.5279765579       13.7553860821
  C         0.6294199479       10.2287461966       13.8029941811
  H        -1.9537779525        9.3303185562        3.2183341537
  H        -1.7451792161       10.8993174740        2.6613558786
  C        -0.9960641734        9.3983487384        1.3354823255
  S         4.4890766052       18.1688764419        3.7096299905
  N         4.5878952836       17.6716363765        2.1518712966
  C         5.0141743651       15.5048387832        1.0250295552
  H         5.2411839541       13.3673949348        0.3444641914
  H         0.3892225756       14.8228351189       10.7228793035
  H        -0.0686570920       14.6121773571       12.4506595751
  C        -1.0542497839       13.2569868213       11.0544609040
  H         2.7601726362       14.9712567478       11.8836787933
  H         1.9645319799       14.5068396235       13.3340231587
  C         3.8921643161       13.5113542956       12.8070630577
  H         0.7381379302       12.2972834896       14.4850571846
  C         0.2465209613        9.5064553203       15.0776545743
  H        -1.9910819818        9.1301282788        0.9291161333
  H        -0.3295281864        8.4729746069        1.4189886934
  C        -0.4305746020       10.3381400452        0.3369602384
  C         5.1090507503       16.2309207383       -0.1857103906
  H        -0.8404951119       12.8294640314       10.0650047428
  H        -1.1586975613       12.3255115798       11.6021604988
  C        -2.3772338231       14.1400902616       11.0012857085
  H         4.5045678764       13.9045880854       12.0154998548
  H         3.8563669329       12.4448054525       12.8711352510
  C         4.5487598257       14.0564676761       14.0876944578
  C         0.1882434614        8.1438646836       15.1541580112
  C         0.0921560044       10.2892976560       16.3729528502
  H        -1.3405740539       10.8266891871       -0.1769943554
  H         0.1294332647       11.2222799652        0.6596994421
  C         0.3087703702        9.5880460809       -0.7927292444
  H         4.8171620403       17.2299249259       -0.2157299519
  C         5.4074118391       15.8034473161       -1.4628878292
  H        -2.3022453655       14.9449531829       10.1672451743
  H        -2.4382690128       14.6388187531       11.9934407207
  C        -3.6118472272       13.3820254853       10.6495054469
  H         4.3129809964       15.1010308413       14.2850699762
  H         4.0383703617       13.6540812919       14.9023820278
  C         6.0394892041       13.7913098486       14.0963476643
  N         0.5316289799        7.2267274369       14.1466074853
  C        -0.1144998824        7.4443911176       16.3119846800
  C        -0.2854715537        9.6252226057       17.5060314425
  H         0.1311307291       11.3630120980       16.4107031495
  H        -0.3143420449        8.9112167977       -1.2833719832
  H         1.2653530009        9.2081211807       -0.5377932338
  H         0.5342056285       10.3519188326       -1.5701358610
  S         5.5719694280       14.1910006549       -1.9592548453
  C         5.4349532799       16.8069098546       -2.5656154561
  H        -3.2958136449       12.4578695935       10.1295711928
  H        -4.2300817525       13.0879963556       11.5592671678
  C        -4.5360961364       14.1679675494        9.7275067316
  H         6.0927050989       12.9905271622       13.4333785398
  H         6.4390369454       13.6215144094       15.0429716742
  C         6.8289436619       14.9349641896       13.3725476824
  S         0.2227550599        5.7203978731       14.6064847668
  N        -0.1356501077        6.0252636925       16.1600950049
  C        -0.3426901974        8.1194069796       17.5432257307
  H        -0.4019286993       10.2112247493       18.3555886266
  C         5.9661947418       14.8775674008       -3.5273619428
  N         5.7615092182       16.1738282433       -3.6738131016
  O         5.0298151625       17.9720194360       -2.4508880273
  H        -5.2312547654       14.7871517613       10.2373218604
  H        -4.0056556519       14.8413658834        9.0324204352
  C        -5.3991081279       13.2786993815        8.7643662459
  H         7.6334031614       14.4624508996       12.6951877139
  H         6.1493585940       15.5147433218       12.6957239537
  C         7.5289171026       15.8199409071       14.3892977783
  C        -0.6110631146        7.3926763162       18.7240795312
  S         6.2719171815       13.8270310190       -4.9076947768
  C         5.7204297875       16.9359274824       -4.9679900153
  H        -4.7475238900       12.9659764306        7.9313535535
  H        -5.5339801680       12.3046759277        9.2891445163
  C        -6.7481784595       13.9120566818        8.3623071828
  H         8.3764944500       15.2406760702       14.8445734620
  H         6.9206698346       16.1225060089       15.2380465987
  C         7.9950522713       17.1558086518       13.7767714199
  H        -0.6167539375        6.3568427640       18.7055212785
  C        -1.0350045322        7.7867492268       19.9564168355
  H         6.3885777119       16.6140218989       -5.7537392564
  H         6.0192846992       17.9577351474       -4.7420531077
  C         4.2031684526       16.8969726051       -5.4338269586
  H        -7.1473049947       13.3715502509        7.4789690785
  H        -6.5595379543       14.8690000916        7.8404470672
  C        -7.7033000426       14.0333309168        9.5376562220
  H         8.8610260728       16.9351146076       13.0846562894
  H         7.1735169040       17.6613441292       13.2068513034
  C         8.4540115468       18.1264281994       14.8196573466
  S        -1.4836763179        9.3455610599       20.4625497707
  C        -1.2298039096        6.7546165372       21.0300880542
  H         4.0121334287       15.9403825209       -5.9711641523
  H         4.1057255669       17.7617462931       -6.0597089545
  H         3.4447138246       17.0664743530       -4.6064053216
  H        -7.4434490174       14.8143368537       10.2886733461
  H        -8.7781578925       13.8430133476        9.2184533345
  H        -7.6396883704       13.0809665945       10.1388476590
  H         9.1408878652       17.5771582581       15.5039130611
  H         8.9832282123       18.9098648316       14.2640834413
  H         7.8308025899       18.3167875838       15.6574911733
  C        -1.7613948867        8.6378291460       22.0451511339
  N        -1.7373682306        7.3359311807       22.1317256799
  O        -1.1062320540        5.5397849925       20.9159429731
  S        -2.4386132793        9.6195148592       23.3262748028
  C        -2.0169257631        6.5913076251       23.3133487740
  H        -2.5594039814        5.7009177267       23.0551714718
  H        -2.7937318078        7.1352188018       23.8878442026
  C        -0.7526796059        6.4144624142       24.1306579758
  H        -0.6559680283        5.3567253164       24.4645202871
  H        -0.7636613671        6.8935868162       25.0978935460
  H         0.1494240259        6.6677318755       23.5699892368
