352
i =
  H        -3.3740691495       15.0164671477       16.3689436634
  C        -2.8964590205       14.0552324139       16.3568694478
  H        -3.5859466274       13.2236480712       16.6533916754
  C        -1.7171846301       14.0287428784       17.3774793024
  C        -2.2954801755       13.7564278211       14.9347593454
  C        -2.1641599109       14.2407238594       18.8247969630
  H        -0.9437674132       13.2087412392       17.2537023194
  H        -0.9901451673       14.8990347858       17.2084597512
  H        -1.6289675802       14.5295806295       14.6640585816
  H        -1.6575091717       12.8794829069       14.9362799742
  H        -3.0239265003       13.6930050226       14.1403106702
  C        -1.7230465010       12.9840717187       19.6950272808
  H        -3.2224580876       14.5608284353       18.9359453583
  H        -1.6560462055       15.1440854404       19.1392912438
  C        -2.1822288695       13.1541363642       21.1157434262
  H        -2.2591286502       12.0993649622       19.2865932454
  H        -0.6516718029       12.7853080776       19.6981093319
  C        -1.0658782283       12.7317271071       21.9918629094
  H        -3.1099924955       12.6292924948       21.3484595775
  H        -2.3542027722       14.2231063881       21.3461653974
  C         0.1498355536       13.6726380345       22.2758494710
  H        -1.6823378233       12.5254768856       22.9186132807
  H        -0.7910258335       11.7290893418       21.6389768537
  C         1.3535809022       12.9242232285       22.8872227045
  H         0.4948307293       14.0873331325       21.3054679058
  H        -0.0868775870       14.6046673143       22.7707770158
  C         1.7873496744       11.5907194253       22.2532762110
  C         0.9917968033       12.2276912319       24.1621351269
  C         2.5376883659       13.8412949983       23.1990833597
  C         1.5325418784       10.4709643788       23.0261859023
  C         2.4462327122       11.2009345113       21.0343095906
  C         1.0288391902       10.8528146178       24.2576050662
  C         0.5543689461       12.7632472725       25.3559076263
  H         2.7089507325       14.4516717344       22.2882541435
  H         2.1856914879       14.5010950498       23.9420495533
  C         3.8520499960       13.1481713732       23.5158440129
  S         2.0343939000        8.9526329094       22.3362650794
  C         2.5887505026        9.8412875981       20.8799147179
  H         2.7100420424       12.0241096001       20.4282565774
  C         0.7777923256       10.1500127399       25.4027739375
  H         0.5097778296       13.8824106676       25.3100168209
  C         0.2175917981       12.0954762129       26.4781174293
  H         4.1774629425       12.5570385487       22.6738724756
  H         3.7438338289       12.5441195352       24.3742179839
  C         5.0255193553       14.1667229252       23.8871475851
  C         2.9760050433        9.2135453620       19.5916382603
  C         0.3358190426       10.7379833592       26.5601125284
  H         0.9818696527        9.1183480684       25.4010579830
  C        -0.3192241604       12.4725280231       27.7654886080
  H         5.8425856339       13.7284353467       24.4391559449
  H         4.7249916965       14.9539907972       24.5763102672
  C         5.6356748762       14.7054977903       22.5902156571
  C         2.9378084398        7.8124837815       19.3342262904
  C         3.2247426430        9.9945931562       18.3913289143
  C        -0.0695163187       10.0222215686       27.8131965875
  C        -0.3108687843       11.3628474392       28.5565267140
  S        -0.6434578698       13.9678512038       28.4887159465
  H         6.1341341143       15.6294932515       22.7695304598
  H         4.9257992214       14.8840400968       21.8373118870
  C         6.5809524595       13.6694170065       22.0529684350
  N         2.4352249665        6.8464102769       20.2657840789
  C         3.1574905461        7.2235670508       18.1075387497
  C         3.5565479467        9.4548187546       17.1805239788
  H         3.3860732449       11.0336837138       18.4910684013
  C         1.1716701711        9.2590516639       28.4050776011
  C        -1.3877764551        9.2323763438       27.5813192274
  C        -0.5921714740       11.7407222788       29.9063188701
  C        -0.8403097041       13.0973954514       29.9902604437
  H         7.5256852662       14.0287852298       22.1611092425
  H         6.5368170376       12.7302682222       22.5014000769
  C         6.3472884654       13.5020334006       20.5870839610
  S         2.5377279620        5.3941837019       19.6437942691
  N         2.9483723304        5.8208125978       18.0990037426
  C         3.4885003772        7.9891622154       16.9512431205
  H         3.6658332078       10.0670454041       16.3365861444
  H         1.6270327458        8.6926245774       27.6308202977
  H         0.8386491192        8.5832638780       29.1249437665
  C         2.2742039769       10.1215970283       29.0097827789
  H        -1.2179748181        8.4887704638       26.8751530104
  H        -1.7200895692        8.7522295958       28.5107692969
  C        -2.5236370439       10.0893745992       27.1332682800
  H        -0.4257497186       11.0203272113       30.7372289853
  C        -1.1553747511       13.7973177627       31.2665287456
  H         6.0985023412       14.5388415527       20.2011386512
  H         5.4732978980       12.8697327880       20.3790767868
  C         7.6877779291       13.1361175072       19.9245193813
  C         3.6473465607        7.3071123997       15.6828267727
  H         2.8350295511       10.5806404881       28.1799370687
  H         1.9193602224       10.9439203515       29.6706685470
  C         3.2654539940        9.2184001447       29.8102910294
  H        -2.2577535705       10.5577445217       26.1695620318
  H        -2.7455057815       10.9164574006       27.7317979376
  C        -3.7692744123        9.2192037867       26.9856581586
  C        -1.3120179294       15.1929991082       31.3615884012
  C        -1.4466046939       13.0723862722       32.5010261427
  H         8.4158600627       13.9085021343       20.2639073555
  H         8.0504142053       12.2007555973       20.1911159016
  C         7.6546607880       13.4552415386       18.4452331087
  H         3.4957508937        6.2892662037       15.7644490583
  C         3.8128941614        7.7463535852       14.4162084393
  H         3.4226592535        8.3220744303       29.2024749510
  H         2.6801308733        8.8111772675       30.6947051517
  C         4.4703587392        9.9668290613       30.3625097256
  H        -3.5152063585        8.5067321473       26.2513531858
  H        -3.9901064317        8.5984517595       27.8366368763
  C        -4.9540207225       10.1437097599       26.5409987470
  N        -0.9496156932       16.1635227801       30.4225088432
  C        -1.7825843472       15.8224185676       32.4964669424
  C        -1.9356361768       13.7098388644       33.6640144834
  H        -1.4388502651       11.9936256427       32.4920966361
  H         8.2815694431       14.3719326638       18.3806252343
  H         8.1815458318       12.7821821214       17.8294813271
  H         6.7123170604       13.7491107855       18.0027925335
  S         4.1033719620        9.3688638746       13.8672066773
  C         3.9539721846        6.7105633968       13.4051537250
  H         4.5817677519       10.8876305158       29.8663530132
  H         4.2005296156       10.2465139827       31.3185078034
  C         5.8197284320        9.3069195926       30.2960645472
  H        -4.5378105979       11.1294797189       26.3111837573
  H        -5.6223468477       10.3501672655       27.3264953973
  C        -5.7416356420        9.6253056703       25.3344228078
  S        -1.3058649596       17.6489225907       30.9180396273
  N        -1.6970509228       17.2073386993       32.4258088859
  C        -2.1096935162       15.1967773791       33.6494461877
  H        -2.1969294979       13.1172100865       34.5587323574
  C         4.5350751128        8.6155033079       12.3318294466
  N         4.3009107567        7.2932838038       12.2506154553
  O         3.7977387049        5.5017157536       13.5621048027
  H         6.4946834264       10.0411192096       30.7448930233
  H         6.0472516020        9.0771566453       29.2294926783
  C         5.8700660094        8.0010745498       31.1316453733
  H        -4.9954098330        9.2417578805       24.7180421953
  H        -6.1802737976        8.6466124248       25.6269243340
  C        -6.6888040514       10.6624627568       24.7528838106
  C        -2.4648313845       15.9657521516       34.7814764271
  S         4.9796117055        9.4995696702       10.9184622673
  C         4.2216034376        6.5251877907       11.0095906791
  H         6.4969113592        8.2061127103       32.0521213761
  H         4.8902119777        7.7537833276       31.5278652158
  C         6.4625851993        6.8436216608       30.3828880053
  H        -6.3124930400       11.0558449122       23.8392552258
  H        -6.9025932999       11.5582354964       25.3128287192
  C        -8.0162858965       10.0664946346       24.5909226718
  H        -2.5270406819       17.0197679820       34.5537364568
  C        -2.9537720109       15.6780823949       36.0434060763
  H         4.8852694999        6.8821803391       10.2720630567
  H         4.6511423847        5.6111360619       11.3157949882
  C         2.7367917771        6.3731814414       10.4647795400
  H         7.4354841161        6.9940006254       30.0521267902
  H         5.9699170337        6.7490957019       29.4621196936
  C         6.4018233148        5.5233552593       31.0976948417
  H        -8.6251541873       10.7220301169       24.1510846737
  H        -7.7602340540        9.0773171374       24.0818577810
  C        -8.6447551181        9.6473755727       25.9505722650
  S        -3.2845910703       14.1141395766       36.7041674391
  C        -3.1396322483       16.8129781709       36.9857366521
  H         2.4990213208        7.3137334858        9.8819776440
  H         2.8336660833        5.6297829935        9.7088502004
  H         1.9557947389        6.2097797331       11.2322754097
  H         6.8324855250        4.8555093524       30.3926188180
  H         5.3434055566        5.2686541816       31.2927006179
  H         7.0435689328        5.5308853603       32.0275814153
  H        -8.0735802199        9.9069107719       26.8407111444
  H        -8.9032040431        8.6007781316       25.9930200081
  H        -9.5824345758       10.1737521885       26.0450855880
  C        -3.7437102346       15.0146945004       38.1784088513
  N        -3.6778490615       16.4339983321       38.1099271261
  O        -2.8199807421       18.0003313982       36.7030473500
  S        -4.6969168647       14.3494153868       39.4842987930
  C        -3.9607904789       17.2798360733       39.2538115008
  H        -4.0950561397       18.3337690724       38.9544120876
  H        -4.8556840809       17.0357703113       39.7401032708
  C        -2.9144190443       16.9945264987       40.2993500423
  H        -2.1160825909       16.4083934251       39.8772974753
  H        -2.6122273497       17.9112043426       40.7136068777
  H        -3.3516895466       16.3387239361       41.0373386332
  H         7.4910663288       11.5816309135        3.2293317104
  C         7.8181899592       10.5369177080        3.4650517446
  H         6.9543053226        9.9087955119        3.6422622443
  C         8.7842811794       10.5380686402        4.6781224316
  C         8.5458292302       10.0843770945        2.2606101593
  C         8.0372329632       10.8401914908        5.9510898808
  H         9.3532130104        9.5781714094        4.7061831383
  H         9.5900226598       11.2915223232        4.5686303528
  H         8.8813098327        9.0310207052        2.3598136345
  H         9.4335268700       10.6308548062        2.2831350027
  H         7.9529504673       10.2053562345        1.3198882777
  C         7.4196919352        9.4725655683        6.5420592011
  H         8.8248354790       11.1528441690        6.6820248010
  H         7.3196979617       11.6754862659        5.8102532124
  C         6.5855169862        9.5784887034        7.8425591018
  H         8.1813595445        8.7722562163        6.7717696526
  H         6.9234865562        8.9112321818        5.7515044630
  C         5.3015343852       10.4757705012        7.5275212049
  H         7.1451085965       10.0846002570        8.6526644885
  H         6.2093616315        8.6917344930        8.3267036140
  C         4.2259573246        9.7957108669        6.7551003490
  H         4.8944938673       10.9581942032        8.4014800217
  H         5.4390489825       11.3150281588        6.7817356622
  C         2.9920424906       10.7516150605        6.4718317827
  H         3.8340922111        8.9685176182        7.2977583681
  H         4.6074147154        9.5020774440        5.8022784018
  C         3.3117873116       12.0996187150        5.9095962038
  C         2.4774290314       11.2883561348        7.7756804558
  C         1.8761832718        9.9413594989        5.7143948912
  C         3.0299720420       13.1065725560        6.7643266450
  C         3.6849094556       12.6025437922        4.7036149009
  C         2.5565065177       12.6607494180        7.9693548983
  C         2.0960627789       10.6150597504        8.9322191151
  H         2.1568951523        9.6055594298        4.7516640526
  H         1.6409135918        8.9893008957        6.2658402005
  C         0.5465924515       10.7324623478        5.5125819782
  S         3.2509663318       14.7284647206        6.1082287638
  C         3.8459352070       13.9953165450        4.6850744420
  H         3.8041633887       11.9455131999        3.8711408309
  C         2.2257474776       13.2579292313        9.1728317524
  H         2.1013934939        9.5202209472        8.8019521227
  C         1.7865543017       11.2264252629       10.1754414183
  H         0.7797050560       11.5988135575        4.9952423808
  H         0.1670628506       11.0110164089        6.5210669635
  C        -0.4248857333        9.9879311859        4.5700001123
  C         4.3265755898       14.6860533042        3.4995436255
  C         1.8026326006       12.5877197058       10.3379811325
  H         2.4367899474       14.3442276394        9.3039050056
  C         1.4010283406       10.8723858806       11.4235397905
  H        -1.1987922829        9.5418565619        5.1449931790
  H         0.0225373401        9.1182729613        4.2679893438
  C        -0.8860909824       10.8661345539        3.3460648724
  C         4.2610614486       16.0839724685        3.2567693528
  C         4.7894298837       13.8934546540        2.3260284004
  C         1.5731217772       13.3011831641       11.6579475627
  C         1.2284334868       11.9630870937       12.2610962310
  S         1.0800681124        9.3083464926       12.0836261134
  H        -0.0808916211       11.3900789497        2.8535037440
  H        -1.5584601555       11.7277274195        3.5540546204
  C        -1.4834359744        9.9493410115        2.1810586354
  N         3.7700537030       16.9898280765        4.1745298675
  C         4.5566088087       16.6342942587        2.0582579452
  C         5.0759946652       14.4331449335        1.0785528205
  H         4.9810875104       12.8249211756        2.4920655005
  C         0.3726473236       14.2446378037       11.5872973304
  C         2.9569135257       13.8390321972       12.1614336661
  C         0.8253928440       11.4876340278       13.5379695426
  C         0.7871910103       10.1076969809       13.6239896727
  H        -2.3456337988        9.4470338240        2.4624165966
  H        -1.7376306679       10.5906634361        1.3477700879
  C        -0.5117104011        8.8950595987        1.4492860394
  S         3.9226599609       18.4783200208        3.5763969927
  N         4.5484249615       18.0334088984        2.1607317015
  C         4.9780840338       15.9227889319        0.9097864472
  H         5.5206583593       13.7755863686        0.3367882491
  H         0.7658053812       15.1037796593       10.9670505250
  H         0.2177181180       14.7028765668       12.5593010514
  C        -0.9400911924       13.5139908050       11.1926275490
  H         3.7930829941       13.2133839910       11.8278701675
  H         3.1180870828       14.8148405144       11.6571721599
  C         3.0300267538       13.8547410431       13.7267614916
  H         0.5141837511       12.1716035299       14.3163183986
  C         0.5009539955        9.3091725503       14.8277551909
  H        -1.2307261144        8.0849755381        1.1847719472
  H         0.2517173531        8.3869366542        2.0085306010
  C         0.1757422204        9.5032116890        0.2657230556
  C         5.1799181166       16.6406409453       -0.2969514398
  H        -0.7923239434       12.8534276918       10.3417165905
  H        -1.2238506630       12.8634690140       12.0531092084
  C        -2.1708919787       14.3808320867       10.9477552329
  H         3.0081989446       12.8536271022       14.2145470887
  H         2.0967386361       14.2995647449       14.1404264412
  C         4.2084472296       14.7026052683       14.1718861767
  C         0.3408706568        7.8945017710       14.9487213856
  C         0.3730822738        9.9681272508       16.1755492112
  H         0.6957630392       10.4018773721        0.5848103271
  H         1.0005618685        8.8725659212       -0.0537505626
  C        -0.6611479642        9.6072411286       -0.9914457515
  H         4.8955916430       17.6756196819       -0.2148965391
  C         5.4426887098       16.2164727371       -1.5767575320
  H        -2.0032931359       15.0132848405       10.1005457801
  H        -2.3406341673       15.0442713924       11.7487407953
  C        -3.4401091428       13.5289215905       10.6946790877
  H         4.5748787442       15.2887602452       13.2717076629
  H         3.7807142615       15.3331011135       14.9373188139
  C         5.3582230241       13.9318276808       14.7107341683
  N         0.7035171812        6.9476666242       13.9868391774
  C         0.0654685331        7.2300148934       16.1266103026
  C         0.0787788164        9.3447911487       17.3711697036
  H         0.2971918340       11.0899614604       16.1170529817
  H        -1.6666876573        9.9506048453       -0.6906306738
  H        -0.7577090135        8.6949888748       -1.5518719051
  H        -0.1620100412       10.3067809237       -1.6568491343
  S         5.5760564339       14.5951859221       -2.0980193936
  C         5.5108792153       17.2826678991       -2.6218938949
  H        -3.0731037470       12.5361681371       10.4868557733
  H        -4.0342607697       13.4419154914       11.5668373921
  C        -4.2092836779       14.0542830950        9.4768086614
  H         5.4615685771       12.9382662629       14.3250753355
  H         5.1331158354       13.7843037591       15.7723775935
  C         6.7370454232       14.6426652316       14.5026809610
  S         0.5074381647        5.3962407744       14.5317835585
  N         0.1159888719        5.8191727967       16.0671065111
  C        -0.0383555842        7.8923997205       17.4242562386
  H        -0.0743850639        9.9518342810       18.2581161702
  C         5.8960956137       15.2865716343       -3.6733494286
  N         5.7800611113       16.6423769516       -3.7843043879
  O         5.5048954960       18.4825075508       -2.4410950044
  H        -4.4985393120       15.1157414777        9.5558239205
  H        -3.5712056950       14.0448169014        8.6104464020
  C        -5.3553454592       13.0930778998        9.0756365721
  H         7.3502860648       13.7613423115       14.6718774435
  H         6.9679009735       14.7989677289       13.4624448389
  C         7.0955090881       15.7868166857       15.4564484247
  C        -0.4097327486        7.1129363238       18.5523148230
  S         6.1888571134       14.3534005835       -5.1146191291
  C         5.8050783444       17.4195623607       -4.9810392743
  H        -5.0106704604       12.4834609450        8.3145133787
  H        -5.5664721161       12.5759873796        9.9881522655
  C        -6.6841548780       13.7862693569        8.7333065348
  H         7.2759998641       15.2875659690       16.3602453155
  H         6.2164941889       16.4334231070       15.5535513830
  C         8.2516603308       16.7745863638       14.9492767115
  H        -0.0641381839        6.0320823481       18.4861366039
  C        -0.8856475614        7.4789823319       19.7701100526
  H         6.5606194082       17.0546018437       -5.5945751085
  H         5.9382236038       18.4139752808       -4.8142864682
  C         4.4631762037       17.3352492425       -5.5800098921
  H        -7.2177020516       13.2608720649        7.9734573879
  H        -6.5422073205       14.7021433650        8.2170545701
  C        -7.6418948418       14.0093816525        9.9076849229
  H         8.6236646793       17.2562680753       15.9065167314
  H         9.1173953020       16.2168627671       14.5978649509
  C         7.8117058590       17.7374366357       13.8853047745
  S        -1.2174766706        9.1252625894       20.3529141074
  C        -0.9298743209        6.4057019911       20.8393038949
  H         3.9203475521       16.5386537932       -5.0517464687
  H         4.4719319640       17.0471186920       -6.5884593291
  H         3.9667381003       18.2914836898       -5.4956560555
  H        -8.5102960626       14.5442083584        9.5531910095
  H        -7.9945037536       13.0478648402       10.2560088670
  H        -7.2916023141       14.5602488363       10.7802913465
  H         6.8300985175       18.1526113987       14.1909221897
  H         8.6023195507       18.5276741112       13.8080018970
  H         7.8571297427       17.1963245806       12.9554666799
  C        -1.5873995436        8.3160480648       21.8687279383
  N        -1.4149251556        6.9600879056       21.9653905606
  O        -0.6939618170        5.1955934197       20.6906453366
  S        -1.7826555880        9.1862749513       23.3903952044
  C        -1.7558626895        6.2578518739       23.2354341107
  H        -2.2559193758        5.3041249231       23.0293529382
  H        -2.4206651152        6.8148672018       23.8851104229
  C        -0.3241379531        6.0021625064       23.9418528463
  H        -0.1343768859        4.9381438202       23.9680811011
  H        -0.3165301933        6.4419091654       24.9421127694
  H         0.5457772921        6.3769006183       23.3779326927
