352
i =
  H        -2.9514836652       15.2913689740       16.7923915535
  C        -2.8546891788       14.2546595494       16.5795016845
  H        -3.8361212067       13.8919228747       16.3980466417
  C        -2.2125359262       13.4470093536       17.7150585749
  C        -2.2412093076       14.0631209248       15.1879963823
  C        -3.0540103164       13.2922524072       19.0226098796
  H        -2.0533566403       12.4685294321       17.2821914920
  H        -1.2626985822       13.7945357965       17.9119279590
  H        -2.7071835096       14.7842371415       14.5683961717
  H        -1.1707309233       14.3106086775       14.9759522818
  H        -2.4967240783       13.0276478004       14.8171865800
  C        -2.0236139416       13.4908801828       20.2054904802
  H        -3.5581307513       12.3144508071       18.9719117361
  H        -3.9258981691       13.8941841744       18.9813833692
  C        -2.5610782819       13.4215735197       21.6441976924
  H        -1.2239859685       12.7663760598       20.1099974211
  H        -1.4234084620       14.4029795882       20.0324889811
  C        -1.5333934805       12.7275685338       22.5488769517
  H        -3.4836984853       12.8472185930       21.6528895554
  H        -2.7249654648       14.3754747988       22.1601325848
  C        -0.2939499365       13.6082350161       22.7099291463
  H        -1.9416126285       12.5534764226       23.5527846099
  H        -1.2147660492       11.7844384431       22.1983799355
  C         0.9544779942       12.9340021180       23.4078481260
  H         0.0848425587       14.0560050596       21.8297850103
  H        -0.6365506635       14.4604277088       23.2241832168
  C         1.3721650170       11.6495630526       22.7996514590
  C         0.4879460534       12.2797598211       24.7253246846
  C         2.1505038872       13.9272485984       23.6743999242
  C         1.0603791324       10.5690584992       23.5865505295
  C         1.7395229551       11.2271844083       21.5460300096
  C         0.4828857148       10.9349773793       24.7914074248
  C         0.0438545391       12.9832440800       25.8033936306
  H         2.3555500807       14.4843517457       22.7412370514
  H         1.8306923129       14.6564521053       24.4475388108
  C         3.4673327852       13.2487450373       24.2470089899
  S         1.4391176838        9.0287649148       22.9323980115
  C         1.9564911575        9.8785557879       21.5161513714
  H         1.7535239757       11.8966122507       20.7521748061
  C         0.0411341343       10.3364928134       25.9519064801
  H         0.0161639505       14.0778987762       25.6201299739
  C        -0.3482243190       12.3560004032       26.9861692970
  H         3.7566484432       12.5526582166       23.4670673158
  H         3.3345064230       12.5775765233       25.1047734255
  C         4.6171848770       14.1908770445       24.6238796498
  C         2.3643589440        9.1245576630       20.3174451053
  C        -0.3378715489       10.9966045063       27.1420123027
  H         0.1901685509        9.2858747731       26.0540619237
  C        -0.7888362708       12.7113300229       28.2015939339
  H         5.3749695123       13.6936842724       25.2595936896
  H         4.1168191532       14.9773223053       25.1734309628
  C         5.3231933733       14.6923969933       23.3170103913
  C         2.4814195423        7.6902943683       20.0833275777
  C         2.7462251328        9.9420626815       19.0777071956
  C        -0.7540468130       10.3105041386       28.4229279646
  C        -0.9919768732       11.6898310831       29.0600994334
  S        -1.0182296541       14.2653521858       28.9173467241
  H         5.9266919154       15.4896394233       23.5604148644
  H         4.6530453636       15.0473968710       22.5703940758
  C         6.3574463880       13.7993272301       22.8486516232
  N         2.1967956955        6.7354140992       21.0771859634
  C         2.7496000299        7.1217000570       18.8129290683
  C         2.9940361897        9.3038551711       17.8567992049
  H         2.7070708595       11.0335907702       19.2082342768
  C         0.4824652952        9.5750156798       29.0410682937
  C        -2.0062440919        9.5014476038       28.2492000328
  C        -1.3435535895       12.1930456875       30.3575146518
  C        -1.3650880765       13.5737342010       30.4157374425
  H         7.3223452127       14.3747020913       22.9483853914
  H         6.5071533953       12.8125671907       23.3084255116
  C         6.1359125270       13.5511060022       21.3852444326
  S         2.2701424129        5.2551319946       20.4199545100
  N         2.5869381421        5.7413172256       18.9009102361
  C         2.9692746340        7.7735459281       17.6442584797
  H         3.1349035133        9.9726502732       17.0868410364
  H         0.6813266951        8.6644117212       28.4739315732
  H         0.1582141210        9.0648759580       29.9731687105
  C         1.8216328019       10.3140740799       29.0571847283
  H        -1.7677343792        8.6712968537       27.6558358125
  H        -2.1503666737        9.0271893388       29.1878426548
  C        -3.2207810014       10.3065199696       27.8054442013
  H        -1.6483247525       11.5206202232       31.0565306234
  C        -1.6891908993       14.4209402431       31.6122006685
  H         5.6768472839       14.4964441662       20.9822322535
  H         5.4995948977       12.7281154164       21.0594787798
  C         7.4699179163       13.3686651369       20.6580043451
  C         3.1432657401        7.1482652074       16.4109145042
  H         2.1521369204       10.6476525807       28.0965951872
  H         1.6382943204       11.2960355726       29.5425279002
  C         2.9486309000        9.4805810428       29.6119748339
  H        -2.8694004980       10.7852121881       26.8335322858
  H        -3.4507610786       11.1251059039       28.5304330609
  C        -4.4757763236        9.4036342161       27.5641412135
  C        -1.7636423357       15.7993264954       31.7402512216
  C        -1.8160885094       13.6781133663       32.8663274755
  H         8.2963629609       14.0221502830       21.0234583327
  H         7.8097223912       12.3332587280       20.7763924232
  C         7.2932618890       13.7112412455       19.1767077367
  H         3.1138271843        6.0757716956       16.4439715953
  C         3.4093730652        7.5801442034       15.1118147286
  H         3.1340453826        8.7552414584       28.7879130542
  H         2.5543230446        8.9401647633       30.5157857949
  C         4.2284019996       10.2755725768       29.9801150697
  H        -4.1928731546        8.5270410822       26.9747534123
  H        -4.8711384273        9.0151406610       28.5272131735
  C        -5.5951321423       10.1348509611       26.7694782084
  N        -1.4405246111       16.6246062915       30.7263980463
  C        -2.0875055881       16.4352788459       32.9425665880
  C        -2.1294236197       14.2303001535       34.1326436313
  H        -1.7658776802       12.5962008023       32.8624751909
  H         6.4460156365       14.3117004585       18.7230166622
  H         8.2977259620       14.0629772426       18.8013407811
  H         7.1478432964       12.7975592131       18.7118021681
  S         3.4309772415        9.1844055711       14.5964796179
  C         3.4794492188        6.5193075800       14.0066976584
  H         4.4994079354       11.0801418287       29.2431500439
  H         4.0172467062       10.7443039856       30.9557220449
  C         5.3316858475        9.3020267594       30.0979302985
  H        -5.1744301152       10.6738038054       25.8677487523
  H        -5.8414983854       10.9651548124       27.4115569573
  C        -6.8344139740        9.3955326372       26.4064741877
  S        -1.6547250285       18.1635728856       31.2857729023
  N        -2.0767524771       17.7952764936       32.8055118470
  C        -2.2787756697       15.7216024846       34.1565914846
  H        -2.3027255466       13.5125989690       34.8653749516
  C         3.7312590852        8.5415273316       12.9252058035
  N         3.7137917652        7.1768142286       12.8410733261
  O         3.5094799660        5.3017698825       14.2063772302
  H         6.2202565154        9.9116143982       29.9105092686
  H         5.2798095486        8.5966951005       29.2458675456
  C         5.3909508831        8.5906493350       31.4596786442
  H        -6.5721089503        8.6111803461       25.6504974987
  H        -7.1580068820        8.8207280189       27.2782425930
  C        -7.8979683055       10.2563334796       25.7292775050
  C        -2.6745214820       16.3760455163       35.3117932006
  S         4.2487549071        9.4115024603       11.5240714591
  C         3.9263470299        6.4851749882       11.5854207176
  H         5.8342720221        9.2549111826       32.1907588698
  H         4.3308439997        8.5575440108       31.7370196438
  C         6.1623712645        7.3787034662       31.5291474227
  H        -7.4815927874       10.4090191331       24.7156719480
  H        -7.9856403153       11.1976396060       26.1901736983
  C        -9.2726293915        9.6022892644       25.7218287575
  H        -2.4059380488       17.4463108674       35.3405809439
  C        -3.2464109620       15.9629483962       36.4738069556
  H         4.8833541541        6.8121844220       11.2272621834
  H         4.0686241198        5.3969185877       11.7128172051
  C         2.6665465105        6.6477396032       10.6675985746
  H         6.5130397912        7.2689177816       32.5273172714
  H         7.0843724131        7.4882705762       30.9420916980
  C         5.2529280893        6.2683140270       31.0935695375
  H        -9.7793329801        9.9600977910       24.8665986101
  H        -9.1915091642        8.5058966688       25.7359542849
  C       -10.0755691666        9.9709910080       27.0378142802
  S        -3.9699812618       14.3959473650       36.7982525103
  C        -3.2708096252       16.9063993355       37.5802838684
  H         2.5903852149        5.8832852620        9.9310331817
  H         1.8279886467        6.5696431385       11.3584098398
  H         2.7612203555        7.6531080697       10.2144146111
  H         4.2819994218        6.6443193629       30.7235441185
  H         5.1501722110        5.5833180662       31.9212614420
  H         5.7524570652        5.7766134117       30.1954559476
  H        -9.5231671576        9.3993830179       27.8746107785
  H       -11.0378347179        9.5311884080       26.8876672296
  H       -10.1135759407       11.0667114831       27.1772391076
  C        -4.0581069442       14.9267651717       38.4663980157
  N        -3.8656504971       16.2462857623       38.5947902213
  O        -2.8665668506       18.0592994436       37.5512146011
  S        -4.9889195914       14.1343314662       39.7550171332
  C        -3.9663916489       17.0485634500       39.8252981687
  H        -4.2656435965       18.0063077981       39.6665210445
  H        -4.7661785340       16.6539217775       40.4689849117
  C        -2.6067819947       16.9566904034       40.5314626794
  H        -2.6973836257       17.3712439414       41.5486166236
  H        -2.1767037776       15.9191934740       40.5647016596
  H        -1.9026876997       17.6716191198       39.9891909383
  H         6.8870948108       10.8872077012        3.0171102077
  C         7.7412088680       10.3279897417        3.3292568932
  H         7.2539957128        9.4213353762        3.6837843660
  C         8.4085595075       10.8380733228        4.5820839300
  C         8.6157700252       10.0592809717        2.1590007139
  C         7.5311751898       10.9137962766        5.7650075067
  H         9.1591836498       10.0508548102        4.7893880290
  H         8.8248829443       11.8010060360        4.6101867970
  H         9.3441218417       10.8072096965        1.9721011630
  H         7.9864391951        9.9834460772        1.2786753626
  H         9.0924952270        9.0816220321        2.2210169529
  C         7.1541339241        9.6009550085        6.3503165495
  H         8.0194159253       11.4648751448        6.5792367915
  H         6.5675831379       11.4278145206        5.3894654511
  C         6.6028086981        9.7143645908        7.7570094755
  H         8.0465579256        8.9219032436        6.3561910268
  H         6.4169166543        9.1653705905        5.6688623201
  C         5.2506220825       10.3838030510        8.0714767560
  H         7.3139336489       10.1027468578        8.4607491639
  H         6.6556238599        8.7445542035        8.1144628150
  C         4.1334705607        9.8598871868        7.2119874902
  H         5.0196805895       10.1926487216        9.1227588276
  H         5.2980748995       11.4748361176        7.8545255336
  C         2.8935812877       10.7477967893        7.1448300552
  H         3.7838491171        8.9014073149        7.6357693272
  H         4.4552086343        9.6368442779        6.1803579086
  C         3.2308909146       12.1173380997        6.4771049854
  C         2.4971171203       11.4921459526        8.3511307823
  C         1.7581001898       10.0741345957        6.3680648181
  C         3.0119608769       13.2560392671        7.2431827116
  C         3.5965667314       12.4960913484        5.1062632550
  C         2.5335574612       12.8584317985        8.4524267484
  C         1.9766538946       10.8412996272        9.4200071724
  H         2.1374139316        9.5559896338        5.4283559117
  H         1.4589198524        9.2846802311        6.9994757789
  C         0.5409178703       11.0147815791        6.1235519840
  S         3.2250284569       14.7394845676        6.4473973413
  C         3.7031693202       13.8506243562        4.9509182028
  H         3.7566731919       11.7485278824        4.3561547242
  C         2.1677752647       13.4988214553        9.6597189590
  H         2.1653027613        9.8029978065        9.4309720156
  C         1.5855290619       11.4282450640       10.5855817617
  H         0.8048314887       11.9306470979        5.5710894094
  H         0.0096040471       11.2003483885        7.0647380282
  C        -0.4700155935       10.2486910651        5.2359737760
  C         4.1110342090       14.6293164532        3.7350880675
  C         1.6108745624       12.7881340480       10.7435941298
  H         2.2306860111       14.6019326398        9.6981044024
  C         1.1043027058       10.9953398283       11.8620343757
  H        -1.4276907291       10.6731256023        5.0621150277
  H        -0.6207816661        9.3492599283        5.6673432312
  C         0.0584193881       10.0521616614        3.9439736915
  C         3.9938313160       16.0349931141        3.4606243054
  C         4.6528296328       13.8616052186        2.6168559153
  C         1.1174090054       13.4040634158       11.9985993636
  C         0.7809524780       12.0601201948       12.6624874085
  S         0.7112321133        9.4789092729       12.5960440095
  H         0.6052204430        9.1237897646        3.9682616108
  H         0.9315935283       10.7178139818        3.7943303891
  C        -0.9297747890       10.1799289855        2.8595086911
  N         3.6208093045       17.0499930682        4.3742167625
  C         4.3420229228       16.5908918922        2.2526653203
  C         4.9320347883       14.3757531984        1.3948326614
  H         4.9152480412       12.8035836425        2.7449388806
  C        -0.1182719981       14.2715473392       11.7059985902
  C         2.2656546939       14.1966967485       12.8745930986
  C         0.2027618773       11.6467950691       13.9451438387
  C         0.3311652347       10.2892732333       14.0431558397
  H        -1.5782929515        9.2727116292        2.8884333525
  H        -1.5294167641       11.0154471233        3.0110531404
  C        -0.2382388240       10.2023490019        1.4869644401
  S         3.6300571125       18.4860711647        3.5623286036
  N         4.2597655505       17.9616919546        2.1402633347
  C         4.7227720183       15.7692911827        1.1381731158
  H         5.3819970971       13.7797309653        0.6406715051
  H         0.1458530062       15.0346696218       11.0105276964
  H        -0.3963037071       14.8305723780       12.6424960942
  C        -1.3793289211       13.5014648931       11.3107600818
  H         2.7451618822       14.8570149154       12.1796750447
  H         1.7558762366       14.8244720353       13.6399770629
  C         3.3499367088       13.3797602588       13.6037773477
  H         0.1354735110       12.3742077565       14.7305613778
  C         0.0887666772        9.4550801388       15.3282911371
  H         0.5479715778        9.3917291946        1.5161267035
  H         0.1911789177       11.1355280537        1.2316575137
  C        -1.2680681225        9.9276824796        0.3557826679
  C         4.9997046661       16.3303073956       -0.1235914337
  H        -1.1202977912       12.8951454560       10.4061234640
  H        -1.7338484590       12.7414632885       12.0345576244
  C        -2.5704378749       14.3924313744       11.0542025332
  H         3.8677591427       12.7603072134       12.8896566224
  H         2.8314428759       12.7124927500       14.3440607397
  C         4.3556178308       14.2790941711       14.2985955109
  C        -0.0339990325        8.0452724153       15.4509284072
  C         0.0403118408       10.2610052429       16.5553894483
  H        -1.2136179867        8.8365484185        0.1827498377
  H        -2.3602630968       10.0865010492        0.6296159174
  C        -0.6427928405       10.4160511513       -0.9864163712
  H         5.2016153442       17.4425736494       -0.0636268396
  C         5.1750694717       15.8356328151       -1.3677816434
  H        -2.3880255830       14.9162265066       10.1585770474
  H        -2.4601864110       15.0090752227       11.8942696947
  C        -3.9052957169       13.6396341578       11.0258885492
  H         4.7264467662       14.9136159868       13.4281229965
  H         3.8338820181       14.9485219589       14.9302371060
  C         5.4704088977       13.4501163134       14.9790657070
  N         0.0285728818        7.1213992186       14.3571708665
  C        -0.2007734688        7.4576483902       16.6335856306
  C        -0.2227079325        9.6867170050       17.8037383825
  H         0.2325060522       11.3364191897       16.4946127619
  H        -1.0383037807        9.9089603829       -1.8171149943
  H         0.3233452908        9.9743848427       -0.9204861964
  H        -0.5923476109       11.4821405385       -1.0900622596
  S         5.2962884670       14.2278193837       -1.9431092832
  C         5.3752415814       16.8538003762       -2.4796373963
  H        -3.6385033270       12.6480996280       10.5748472770
  H        -4.4576577144       13.5206890168       11.9708271886
  C        -4.8777428212       14.2329336093       10.0064037804
  H         5.6743438687       12.4735879176       14.5108697464
  H         5.0807652220       13.1309589576       15.9947917021
  C         6.8702572500       14.0897487359       15.0986396519
  S         0.0289770657        5.6451314049       14.9832923883
  N        -0.3704407023        6.0907289696       16.4492076437
  C        -0.4086403227        8.1862227246       17.8559001074
  H        -0.3416337454       10.3488532735       18.6467391984
  C         5.7767795845       14.8180831984       -3.4991815944
  N         5.7710615532       16.1569226958       -3.6006567185
  O         5.1807355187       18.0535151409       -2.3955621685
  H        -5.5456911824       14.9161402735       10.5448323171
  H        -4.3277380118       14.7067506335        9.2406988385
  C        -5.7668987318       13.0605367444        9.4790867129
  H         7.5144133672       13.4473089366       15.7052188511
  H         7.2587788967       14.1474468763       14.1274268243
  C         6.6972281174       15.5427203409       15.7049391588
  C        -0.6708532837        7.4434278184       19.0333159999
  S         5.7399110779       13.8844964103       -5.0148793643
  C         6.0049374289       16.9457892130       -4.8828465072
  H        -5.1220252853       12.5081154696        8.7917422172
  H        -5.9945088437       12.4094758116       10.3642938394
  C        -7.0232921982       13.6924155974        8.7619836527
  H         6.9864300939       15.4579441502       16.7453845306
  H         5.7015750594       15.9484297768       15.6793254278
  C         7.6250554316       16.6100863521       15.1533198735
  H        -0.3752251915        6.4323433283       19.0026033135
  C        -1.2556205156        7.7753491249       20.2309585766
  H         6.6895999069       16.4538128495       -5.4110198184
  H         6.4561472930       17.8916993228       -4.6498924380
  C         4.6540517144       17.1304798435       -5.7012789546
  H        -7.3793276593       12.9361151318        8.0661595390
  H        -6.7224335271       14.5445973789        8.1791397786
  C        -8.1438351163       14.0490774956        9.7152781198
  H         8.6849550794       16.3211817386       15.4406518432
  H         7.6027405982       16.7075040908       14.0403448012
  C         7.2666686637       18.0512433780       15.6359059104
  S        -2.0071078304        9.3018980966       20.5167860164
  C        -1.4118885700        6.7721134746       21.3096626369
  H         4.6700705972       18.0754391584       -6.2097496656
  H         3.8504655672       17.2498481203       -5.0483241774
  H         4.4840905868       16.2189629610       -6.3377285213
  H        -8.4965285192       13.2765826604       10.3783600526
  H        -7.8588699363       14.7905935835       10.3956569725
  H        -9.0107220036       14.5349871683        9.1791133725
  H         7.8829447859       18.7790787969       15.1206956555
  H         6.2553534070       18.3262093717       15.5262535954
  H         7.4712832505       17.9929656784       16.6772809347
  C        -2.4464965399        8.6178053636       22.0699721627
  N        -2.1142774991        7.3358192469       22.3109932286
  O        -1.0881945418        5.5897834248       21.2525715008
  S        -3.2426161365        9.4929120637       23.4007575753
  C        -2.2202275911        6.6660784341       23.6334396188
  H        -2.2217816563        5.6669083602       23.3351813635
  H        -3.2124891509        6.8429407462       24.0978224557
  C        -1.1853519421        7.1090087242       24.5859632630
  H        -0.4323026401        6.4088544182       24.5117001168
  H        -1.6394803195        7.1193518796       25.5716541907
  H        -0.7100606628        8.0619311075       24.4405395826
