352
i =
  H        -3.3216244794       14.4216877238       16.5595941206
  C        -3.1334218011       13.4195502075       16.4176491523
  H        -4.1062042929       12.9160161712       16.6113280384
  C        -2.1985145309       13.0237308389       17.5149290447
  C        -2.7832593496       13.0664803639       14.9586386529
  C        -2.7383364451       13.5687781643       18.8609797569
  H        -2.0303594704       11.9711210586       17.6474612501
  H        -1.2610691001       13.4525330769       17.2156635351
  H        -1.9931226117       13.6574634423       14.5131175970
  H        -2.5049018305       12.0016343705       14.7846713131
  H        -3.6701138618       13.1917041766       14.3429817586
  C        -1.6573083376       13.3734738791       19.8875360945
  H        -3.6925221632       13.0912763082       19.1181154392
  H        -2.9158332786       14.6528436748       18.8458568110
  C        -2.3236638075       13.3311511524       21.2763765039
  H        -1.2664720420       12.3659307872       19.8132393876
  H        -0.9663912441       14.1709507176       19.6878920219
  C        -1.2950736973       12.8446485472       22.2912916435
  H        -3.1918782011       12.6248793210       21.3417644706
  H        -2.6980538036       14.2849623468       21.5727358635
  C        -0.0615975024       13.7116599965       22.4579033755
  H        -1.7713853090       12.7571923082       23.2691824255
  H        -0.9476816265       11.8382091883       22.0638892145
  C         1.1310976152       12.9458827485       23.1378733682
  H         0.2886497381       14.1025421707       21.5272842727
  H        -0.2725748744       14.5075567290       23.1371829925
  C         1.5776222028       11.6739127529       22.4330849025
  C         0.7699841064       12.2371419057       24.3582814651
  C         2.2891395949       13.9592817027       23.4302324455
  C         1.3336909086       10.5480938999       23.2007103038
  C         1.9253060136       11.2686373381       21.1302864858
  C         0.8276255649       10.8977398417       24.4618721489
  C         0.3302904408       12.8767013068       25.5726208564
  H         2.6520850314       14.3858930055       22.4410567935
  H         2.0901160993       14.8239624431       24.0564321611
  C         3.6479101751       13.3569045872       23.8418674350
  S         1.6302372516        9.0699412576       22.4218572626
  C         2.1740310748        9.9367328353       20.9918494986
  H         2.0324228281       12.0318915917       20.3660793913
  C         0.4448734427       10.2724509531       25.6417207199
  H         0.2637618730       13.9965934167       25.5418245666
  C         0.0607684904       12.2817601327       26.7267772882
  H         3.9303574217       12.4642804675       23.2073576472
  H         3.4736522522       12.8832974867       24.8464303978
  C         4.8071397673       14.3005828859       23.6890796506
  C         2.4892703926        9.1549709516       19.7424721788
  C         0.0322806300       10.9366287287       26.7989445354
  H         0.4420558094        9.2028627104       25.6676266298
  C        -0.4184964838       12.7142402130       27.9792291918
  H         5.6174850805       13.8720878587       24.2799670634
  H         4.6066789678       15.1857835423       24.2435551199
  C         5.3612432607       14.5381982290       22.2257119077
  C         2.3867496185        7.7559240160       19.6091043627
  C         2.6904530995        9.9067337952       18.5596483088
  C        -0.3577611148       10.2645270298       28.0736264702
  C        -0.6334061032       11.6054669333       28.8097703030
  S        -0.8589353256       14.2192031936       28.7111733000
  H         5.8636747435       15.4945843919       22.4195722283
  H         4.5681269045       14.7962926033       21.6047047740
  C         6.2761062372       13.4078367780       21.8049809690
  N         2.2100037447        6.8235950560       20.6243735839
  C         2.5750160937        7.1900573478       18.3814647217
  C         2.8241649912        9.3137832549       17.3087350293
  H         2.7565021618       11.0193513745       18.4975716891
  C         0.6980019504        9.4464673428       28.8405754152
  C        -1.6469714157        9.5193669272       28.0006380354
  C        -1.0243287613       12.0028632342       30.0754884233
  C        -1.1174043904       13.3497051126       30.2489634056
  H         7.2624890785       13.8251204632       21.6059859677
  H         6.4875888680       12.6913112587       22.5937595420
  C         5.6355858223       12.6551046412       20.6125470205
  S         2.0080109647        5.3689216722       19.9447213181
  N         2.2759646180        5.8504055108       18.4186978044
  C         2.8896578008        7.8729501537       17.2074031103
  H         3.0410029388        9.9750097694       16.4219526121
  H         1.0163408314        8.6012347726       28.2085038585
  H         0.1748099052        9.0073989527       29.6890877130
  C         1.9432916167       10.2519360044       29.2156592492
  H        -1.5590898389        8.7033225857       27.3501460652
  H        -1.8935616590        9.1373396477       28.9850270704
  C        -2.9491811558       10.1930520191       27.4998718269
  H        -1.3391204174       11.2306163899       30.7507803579
  C        -1.4113624534       14.0592955722       31.5448297702
  H         4.6461692774       12.2474943915       20.8775079439
  H         6.2522193022       11.7940627308       20.4609031008
  C         5.7032083260       13.4440684991       19.3639420332
  C         3.1610531680        7.1870229925       15.9885258350
  H         2.3405444656       10.8071913727       28.4099154886
  H         1.6826764304       10.9315130885       30.0907783297
  C         2.9769734724        9.1533211467       29.5322551033
  H        -2.7615162261       10.5789966789       26.5116437092
  H        -3.2399785458       11.0853756480       27.9970955030
  C        -4.2190076809        9.2982105392       27.1780681579
  C        -1.6879033781       15.4164134733       31.7766361315
  C        -1.5673420006       13.1415174532       32.7499247514
  H         5.0716203046       12.8462306565       18.7365639433
  H         5.2609237741       14.3918115242       19.3971923416
  C         7.1353362980       13.5198267637       18.8856547546
  H         3.0768819503        6.1583350700       16.0920895413
  C         3.4512678246        7.6224594755       14.7209088934
  H         3.1874514326        8.6038893071       28.6192489437
  H         2.5114992506        8.3239082211       30.1241449960
  C         4.1934028658        9.6716669170       30.3082199149
  H        -3.8454387091        8.4862674962       26.5169216549
  H        -4.5406190343        8.7464166697       28.0950754868
  C        -5.4088978927       10.0915625544       26.6184687411
  N        -1.4989806765       16.4312190904       30.8126773100
  C        -2.0491654823       15.8681444476       33.0225201561
  C        -1.8638871751       13.6662229661       33.9683051884
  H        -1.3746433163       12.0871471498       32.6559669209
  H         7.0877027095       13.7444842813       17.8682559131
  H         7.6264237521       14.4061422546       19.2747646708
  H         7.5569887826       12.5504671872       18.8952815298
  S         3.7996175219        9.1733416509       14.1614792287
  C         3.5665958736        6.5667194955       13.7269445260
  H         4.5495366708       10.6258095546       29.9143289800
  H         3.8926279575        9.8493292143       31.3460039008
  C         5.3014466514        8.5948880346       30.1470082304
  H        -5.0691806008       11.0536066965       26.1466570693
  H        -6.1087026381       10.2660477063       27.4120575803
  C        -6.1367572196        9.2513124177       25.5834487399
  S        -1.8821754880       17.8372945791       31.5718219858
  N        -2.3393585952       17.2231270640       33.0065636947
  C        -2.1395088510       15.1134486497       34.1510040704
  H        -1.8689827605       12.9170870274       34.7380146377
  C         3.8381716386        8.4889124510       12.5405753281
  N         3.8060385637        7.1426245608       12.5152970155
  O         3.3025788761        5.4064423869       13.9712947385
  H         6.2364998675        9.1805882232       30.3370112239
  H         5.4108393895        8.2399478558       29.1771197785
  C         5.1073754870        7.4778759610       31.1000231535
  H        -5.3989445714        9.1490904094       24.7718521021
  H        -6.3697221960        8.2822412240       26.0424205168
  C        -7.3815796573       10.0710081751       25.1454087075
  C        -2.4013347799       15.7144667307       35.4068887481
  S         4.1884048001        9.4223704595       11.0663322089
  C         3.6544519715        6.3610994962       11.2400234125
  H         5.3072856195        7.6459694352       32.1617124362
  H         4.0894385261        7.0768873422       31.2128209924
  C         5.9593844982        6.3793900057       30.6821536256
  H        -7.3874047449       10.2475081377       24.0848007250
  H        -7.3211753945       11.0722428318       25.5640820788
  C        -8.6917497281        9.4159949077       25.4768872836
  H        -2.4466266170       16.7967945472       35.5448200663
  C        -2.9214364134       15.2262500825       36.5812097648
  H         4.3476169243        6.7329452859       10.4554647285
  H         4.0177294659        5.3417966711       11.4396876395
  C         2.1871956461        6.4536555181       10.7330412606
  H         6.9269611946        6.7552669859       30.3908805795
  H         5.5661109734        5.8648354846       29.7743320844
  C         6.2029483843        5.2595117744       31.6880106801
  H        -9.5246676057        9.6472720298       24.7821529644
  H        -8.5932880477        8.3164907953       25.4270983513
  C        -9.1330932893        9.6999181467       26.9015181101
  S        -3.4923977215       13.5862243899       36.8704125843
  C        -3.1233252074       16.1127455838       37.7622721590
  H         1.9891154920        7.4703513828       10.3258628289
  H         2.0051749105        5.8735756183        9.8634935372
  H         1.4235081913        6.3160365608       11.5287180097
  H         7.0098069059        4.6433714146       31.2732869072
  H         5.3114717773        4.6096463010       31.8975119648
  H         6.5699785684        5.6597992286       32.6742995128
  H       -10.2326934169        9.5056074663       27.0263964315
  H        -8.9585485349       10.7389769176       27.1571587246
  H        -8.5316651503        9.0709758809       27.5084067088
  C        -3.8314042194       14.0942208239       38.5437096300
  N        -3.7159348520       15.4414559389       38.7481230270
  O        -2.7346977367       17.3115578698       37.8048565604
  S        -4.7078432602       13.0630925434       39.7533935851
  C        -4.1755246443       16.1407692982       39.9539513288
  H        -4.4980730093       17.1112474950       39.5586581208
  H        -5.1894952087       15.8037923951       40.2627805639
  C        -3.0908707326       16.1273384773       41.0789560887
  H        -2.6200656534       15.1161439558       41.2328811879
  H        -2.2393542771       16.7400911712       40.8004435922
  H        -3.4185360231       16.4193817905       42.0606627791
  H         7.5881325328       11.3157852817        3.5573688021
  C         7.9120321862       10.3254253581        3.5260344676
  H         7.1097802556        9.6997017184        3.2631388898
  C         8.5686462289       10.0327778932        4.8392086823
  C         8.8622603752       10.2820092895        2.2828277217
  C         7.7804919108       10.3607896042        6.1008777390
  H         8.8305534359        8.9696520746        4.8170246202
  H         9.5054744953       10.6646677460        4.8575849408
  H         9.8228191386        9.8598105936        2.5683302938
  H         9.0899906527       11.2197337229        1.8703249817
  H         8.2081611265        9.7862817712        1.4923782177
  C         7.1129174662        9.0832373659        6.6606739694
  H         8.3915346371       10.9258559227        6.8699703659
  H         6.9924864812       11.0056505335        5.8222484253
  C         6.4423400773        9.4468455528        7.9851132935
  H         7.8164195016        8.2942556881        6.8967544000
  H         6.4274580029        8.6740244844        5.9013445437
  C         5.2313639426       10.3356628412        7.7894060634
  H         7.2464820465        9.8844670170        8.5641845254
  H         6.1852225895        8.4909441007        8.5066241009
  C         3.9599769339        9.5486723309        7.2518191180
  H         5.0988705863       10.8571262278        8.7025590108
  H         5.4321124226       11.1103342446        7.0488296421
  C         2.8365297996       10.5209750302        6.9009903873
  H         3.6352101850        8.8583861134        8.0516335966
  H         4.2127859965        8.8995116980        6.4223032730
  C         3.1922787330       11.8460875889        6.2460071040
  C         2.2188935671       11.2383314403        8.0336331255
  C         1.6588227122        9.9093221776        6.1006708597
  C         2.8084870616       12.9526768588        6.9735338196
  C         3.8432402460       12.2335435016        5.0719116593
  C         2.2093311892       12.5733517194        8.1504293696
  C         1.7372780970       10.6135362647        9.1696372366
  H         2.0914244857        9.1522650736        5.3972789759
  H         0.9606762652        9.3423285053        6.7434693937
  C         0.7119687370       10.8721957790        5.3581116375
  S         3.0079356791       14.4927994300        6.2024155911
  C         3.7850499277       13.6030639287        4.9180942719
  H         4.2758824156       11.4709713129        4.4600941194
  C         1.7038425026       13.1703026470        9.2973557937
  H         1.7479255329        9.5272085991        9.1426734521
  C         1.2037500833       11.1539646044       10.2991237641
  H         1.2972446074       11.4015472108        4.6070760175
  H         0.2887801382       11.5994811523        5.9943521040
  C        -0.4544576558       10.1808841605        4.6674736152
  C         4.2244309175       14.3467048424        3.6643927283
  C         1.1888542490       12.5090127473       10.3784912910
  H         1.7505595303       14.2704290995        9.3728929646
  C         0.6965583644       10.7085000060       11.5243910659
  H        -1.1095313361        9.8571219789        5.4872036120
  H        -0.0811898046        9.2241280301        4.3159133081
  C        -1.2188287540       11.0260409323        3.6690424021
  C         4.2084553287       15.7101641015        3.3915445313
  C         4.8656560465       13.5702848749        2.5685164929
  C         0.7785030486       13.1838872317       11.7176953908
  C         0.5217010974       11.8132845123       12.3724832272
  S         0.4296829771        9.1625688097       12.2098645551
  H        -0.6247756686       11.7511260839        3.1824245486
  H        -1.9174170099       11.6702589983        4.1801785099
  C        -1.9757261228       10.1210856018        2.6363326585
  N         3.8575275907       16.6581174680        4.3013942778
  C         4.4703219255       16.2065324846        2.1005292716
  C         5.2085373755       14.0288585453        1.3024734280
  H         5.3083138445       12.6094489874        2.8729877647
  C        -0.4596621328       14.0863612618       11.4520936114
  C         1.9100698958       14.0185255426       12.4530869220
  C         0.1298240724       11.3685172673       13.6632356303
  C         0.0801628409        9.9872310229       13.6836475184
  H        -2.5158361775        9.2757326344        3.0843615329
  H        -2.7138948629       10.6987995367        2.1204267345
  C        -1.0731061266        9.4207444357        1.6516651644
  S         3.8418291504       18.1592118293        3.6290294818
  N         4.2341632575       17.6272624641        2.1568969051
  C         4.9357649112       15.4626250034        0.9848664602
  H         5.7733929593       13.4400682724        0.6183482730
  H        -0.2308144897       14.9276807331       10.8548413675
  H        -0.6458948391       14.4872558633       12.3608614419
  C        -1.7336712187       13.2134884548       10.9831657184
  H         2.4342750950       14.6487764518       11.7210098630
  H         1.6127020545       14.5971505797       13.2601645808
  C         3.0009263665       13.1180325519       12.9631826341
  H        -0.0773540774       12.0641389345       14.4136522792
  C        -0.1108563992        9.2208882430       15.0004734481
  H        -1.7018868024        8.7448291784        1.0643707695
  H        -0.4451369567        8.7914129941        2.1841557486
  C        -0.3484526106       10.3826886503        0.6303705437
  C         5.2427369770       16.1501587761       -0.2195226867
  H        -1.5157562452       12.3963011801       10.3810301045
  H        -2.2549782514       12.7607172406       11.8142525848
  C        -2.8302109637       14.0872704275       10.4180410024
  H         3.1278730905       12.3373467755       12.2097360655
  H         2.7463048992       12.6705182864       13.9037831621
  C         4.3822297517       13.8479871520       13.1428715766
  C        -0.1362443496        7.8182598501       15.1122557914
  C        -0.2020170566       10.0148833380       16.3031703533
  H        -0.4997267732       11.4094264158        0.7831359230
  H         0.7042962504       10.2541712322        0.7773722035
  C        -0.8606857482       10.1175456401       -0.7957874112
  H         5.1987710388       17.2079072219       -0.1351576892
  C         5.5007645522       15.6882247903       -1.4322765987
  H        -2.5943123938       14.7717531463        9.5863159843
  H        -3.0446755727       14.8360925592       11.2129721796
  C        -3.9941287324       13.2578081312        9.9098107501
  H         4.8986845840       14.2427779624       12.2478161322
  H         4.2109065183       14.7524361603       13.7490785469
  C         5.3709164056       13.0147956990       13.9329840414
  N         0.0457744275        6.9451329554       14.0837303040
  C        -0.2823462528        7.1907855286       16.3439185575
  C        -0.5143805325        9.3606888439       17.4769391906
  H        -0.4226931661       11.0522853384       16.2271224891
  H        -0.0487978814       10.1614475113       -1.4369145171
  H        -1.5157669356       10.9534317550       -0.9950571523
  H        -1.2896126677        9.1430631127       -1.0353484529
  S         5.7544086652       14.0780009206       -1.8361132352
  C         5.5138427562       16.6745559392       -2.4892443076
  H        -3.5730360315       12.6158027325        9.1621191620
  H        -4.5428548455       12.8153387570       10.7609787517
  C        -4.9509981896       14.1065773015        9.0867330755
  H         5.2773437494       11.9510668605       13.6897717057
  H         5.0482499366       13.0798951467       15.0284197963
  C         6.8012192581       13.5431532854       13.9829475068
  S         0.1195830881        5.4343520725       14.7170856675
  N        -0.2633021509        5.7903332768       16.2134646743
  C        -0.4901554101        7.8571345338       17.5326124211
  H        -0.6910649147        9.9821215960       18.3106977013
  C         5.9145254565       14.6736554699       -3.4981766100
  N         5.8386756335       16.0631203665       -3.6488365018
  O         5.2545707933       17.8515258973       -2.3189063219
  H        -5.2152872885       14.9442866804        9.6724267616
  H        -4.5120233032       14.5368901916        8.2214286530
  C        -6.2079194676       13.3689830243        8.6478780391
  H         7.3559033594       12.6805190107       14.3156416254
  H         7.0146836436       13.8908143935       13.0248478877
  C         6.9020160198       14.7743179464       14.9151973922
  C        -0.8259183079        7.0955928765       18.6972320318
  S         6.5750720377       13.6672643731       -4.8392488340
  C         5.7195946248       16.7616355805       -4.9000373723
  H        -6.3670286570       13.4176612196        7.5683597968
  H        -6.0304697873       12.3344020229        8.8025895685
  C        -7.4842224715       13.9670779409        9.3761581135
  H         7.1172506270       14.4656463043       15.9561484902
  H         5.9745850335       15.3526782180       14.8274175495
  C         8.1479826660       15.6996331101       14.5524646130
  H        -0.6322350487        5.9895521566       18.5025616167
  C        -1.1794637020        7.5118025574       19.9653815342
  H         6.4023257344       16.3186262638       -5.6442304758
  H         6.0665684759       17.8112282455       -4.7185656900
  C         4.2092540693       16.8492553981       -5.4121778638
  H        -8.2588852472       13.9237434846        8.6262881785
  H        -7.5217623757       14.9922192670        9.6712089635
  C        -7.9310401840       13.1006217937       10.5042155964
  H         8.3975759609       15.8846205765       15.5639004144
  H         8.9072026620       15.1566910118       14.0126081400
  C         7.6329295593       16.9813056052       13.9751303499
  S        -1.4440064520        9.0694460177       20.5711555415
  C        -1.3718550791        6.4176263102       20.9296526889
  H         4.2660491252       17.4518586857       -6.2827968470
  H         3.4855557091       17.2138557476       -4.6880271683
  H         3.7875755139       15.9497383555       -5.8406757209
  H        -8.6064958411       13.6363006767       11.1795597209
  H        -8.5960863229       12.2295007019       10.1683650786
  H        -7.1237827685       12.6806306213       11.0772535879
  H         7.0424699160       16.7915764499       13.1185456105
  H         7.0320089243       17.6969863328       14.6295495617
  H         8.4174328330       17.5981988402       13.5533546370
  C        -1.9666951622        8.3449897403       22.0993898101
  N        -1.7934321783        7.0052349518       22.1000998727
  O        -1.2152651741        5.2074535638       20.6774833128
  S        -2.2397996325        9.2427045301       23.6226717542
  C        -2.1321502302        6.1690284700       23.2644465567
  H        -2.5529618830        5.2034474357       22.8848961340
  H        -2.9236107537        6.6669206142       23.8662891244
  C        -0.9158276434        5.9354874543       24.1670328450
  H        -0.4599692256        4.9768352665       23.7756202854
  H        -1.1635941904        5.4786247037       25.1145735090
  H        -0.1667405021        6.6780793846       24.1008412360
