352
i =
  H        -4.1680736629       14.4861399167       16.3822297584
  C        -3.6001117411       13.5271999605       16.1523637441
  H        -4.3260399392       12.7104246658       16.2414909372
  C        -2.4207040691       13.4942303890       17.1988975963
  C        -3.2048723570       13.5499737984       14.6540951655
  C        -2.7816885413       13.7046929478       18.6896242056
  H        -1.9208747381       12.4848394794       17.1184006073
  H        -1.7326552215       14.3330404307       16.8524502332
  H        -2.8247871206       14.4692580775       14.3039074622
  H        -2.5670593824       12.6770556653       14.6504993508
  H        -4.0106898276       13.2713790691       14.0862330973
  C        -1.7515275808       13.2097480853       19.6799779019
  H        -3.6591124243       13.1257217024       19.0182759300
  H        -3.0203823985       14.7602918198       18.8116335843
  C        -2.2674082271       13.3760188732       21.0798954763
  H        -1.3868869303       12.1993680699       19.4689047591
  H        -0.9556543915       13.9964781481       19.6939297837
  C        -1.3229080636       12.7967393614       22.0817501667
  H        -3.1980344303       12.7646172955       21.1162961151
  H        -2.4141309631       14.4399231274       21.1331582681
  C        -0.1641105804       13.7684999211       22.3592905468
  H        -1.9058330482       12.6519790982       22.9908806423
  H        -1.0072966972       11.7592908041       21.7662632059
  C         0.9829783159       13.1431709911       23.1584326545
  H         0.3032983473       14.1121685236       21.4413448358
  H        -0.5146565285       14.7146361144       22.8669438554
  C         1.3989512762       11.8069985451       22.5316306379
  C         0.5185508272       12.4436522203       24.4054067871
  C         2.1410462726       14.2123496671       23.4390171671
  C         1.1779902413       10.7029381872       23.3330890511
  C         1.8993639727       11.4463621303       21.2567283802
  C         0.6367703345       11.0880233664       24.5570948128
  C         0.1370659949       13.0593930045       25.5521464300
  H         2.2605845184       14.7674667102       22.5324344102
  H         1.9764804028       14.9648892027       24.2227875861
  C         3.4227264992       13.4899448834       23.7423559919
  S         1.5319935633        9.2338655754       22.5949106450
  C         2.1026340859       10.0876841667       21.1739397886
  H         2.1363491516       12.2303017752       20.6202338900
  C         0.4228104893       10.5371339864       25.7394198720
  H         0.0871621942       14.1136709101       25.3805311159
  C        -0.1024240227       12.5173315144       26.7569308213
  H         3.6394762542       12.7372550630       22.9255105048
  H         3.1763112630       12.9445449478       24.6869231071
  C         4.7595586304       14.2962655701       23.8764069205
  C         2.7886050699        9.4296671355       19.9440320400
  C         0.0472154650       11.2056723283       26.9258320622
  H         0.4737436897        9.4411384580       25.8065807723
  C        -0.5782423836       12.9831386870       28.0056302986
  H         5.4816316982       13.6832948251       24.4246368847
  H         4.6078432288       15.2564921678       24.3624979483
  C         5.3084032688       14.6146733065       22.4833373343
  C         2.7574963875        8.0340404484       19.6974629375
  C         3.3486080116       10.2516422088       18.8351391760
  C        -0.2248059408       10.6162340152       28.2659687218
  C        -0.6519083856       11.9337774758       28.8813378493
  S        -0.9617908781       14.4675395293       28.6884894060
  H         5.9093872236       15.5006734997       22.6158427533
  H         4.3587570855       14.8518367875       21.8354928595
  C         6.1696074477       13.4852985159       21.8442842525
  N         2.3678331739        7.0319193108       20.5160688908
  C         3.0681107696        7.4818816274       18.4355923290
  C         3.7127638672        9.7421727636       17.5915491720
  H         3.3218192051       11.2930255927       18.9319674263
  C         0.9709723796       10.0302679425       29.0673997941
  C        -1.4140828912        9.7090900166       28.1420054692
  C        -1.0295871728       12.3068458757       30.1795370195
  C        -1.1086889909       13.6970621353       30.2299328634
  H         7.1243087260       13.3006325195       22.3511868670
  H         5.5121467138       12.5912294337       21.8673562697
  C         6.3824874941       13.7962692764       20.3572359069
  S         2.4786775874        5.5458531685       19.7901948604
  N         2.9640858325        6.0799673534       18.3557734773
  C         3.5451287331        8.2776525026       17.3395271346
  H         4.0865262150       10.3859990762       16.8066549028
  H         1.2066535966        9.0872474913       28.6109447686
  H         0.6238045507        9.7337051832       30.0460443595
  C         2.3684761916       10.7596793425       29.1813432165
  H        -1.0891248806        8.7482131506       27.6770547965
  H        -1.6203000775        9.3575036149       29.1936484812
  C        -2.6093466131       10.4529403231       27.6017431216
  H        -1.0741378117       11.5763940017       30.9873962257
  C        -1.3204490425       14.4576518943       31.5067846012
  H         6.5097822229       14.8857410817       20.2072144938
  H         5.4697759725       13.5692831421       19.7132100289
  C         7.5697433258       13.1458586220       19.7083581245
  C         3.6952421867        7.6487385895       16.0433338387
  H         3.0548340417       10.3835565697       28.4186048727
  H         2.3267627438       11.7843424861       28.9626754088
  C         3.0310975324       10.4600353724       30.5481388221
  H        -2.3592104057       10.7174283625       26.6276949560
  H        -2.9967352394       11.3080833893       28.1780143163
  C        -3.8136431772        9.5029418504       27.5187708189
  C        -1.4299571437       15.8103236648       31.6632956435
  C        -1.5468617980       13.6349346781       32.7406029237
  H         8.4570722929       13.4364165494       20.2066118595
  H         7.6977972175       12.0638306101       19.8352781839
  C         7.5512482211       13.6132812222       18.2756963800
  H         3.3362553174        6.5725914339       16.0932110436
  C         3.9439564534        8.1444107515       14.8095481392
  H         2.7503571357        9.4215792960       30.8352297520
  H         2.6983574486       11.1394931821       31.3863004861
  C         4.5562674910       10.4983672765       30.3554894429
  H        -3.4581377694        8.7424101411       26.8109544282
  H        -4.1738527358        9.0326126777       28.4243233913
  C        -4.9290456042       10.3575591831       26.8888331037
  N        -1.2339192121       16.6915426260       30.6525902394
  C        -1.7255521785       16.3541604370       32.8864133044
  C        -1.9314761001       14.1727340429       33.9553416385
  H        -1.3824364652       12.5718847649       32.7303395226
  H         6.6501332659       14.0310284394       17.9873645078
  H         8.3228279655       14.3463015279       18.2415404878
  H         7.8136730289       12.7904698067       17.6837197599
  S         4.2048770682        9.7576768561       14.2220880334
  C         4.0190816356        7.0558119793       13.7358328107
  H         4.8040134569       11.2502132695       29.6833321906
  H         4.9679703620       10.8189868916       31.2907057774
  C         5.0965083908        9.1093148308       29.8654847846
  H        -4.3431907731       10.8710964896       26.1991546566
  H        -5.3416604621       11.1007848588       27.5903073967
  C        -6.0578544878        9.5952668348       26.2210974279
  S        -1.3349990765       18.1881124477       31.2533202459
  N        -1.7592698923       17.7222298431       32.7930317759
  C        -1.9735322026       15.6774818357       34.0563316700
  H        -2.0504679611       13.5906014615       34.8495310179
  C         4.2276152215        9.0036641751       12.6393435721
  N         4.2638647225        7.6425046005       12.5915485407
  O         3.9759608786        5.8570174446       13.9458075436
  H         6.0237137643        9.3508438795       29.3175313921
  H         4.4010031289        8.7286905000       29.1274624288
  C         5.3613672356        8.0613316248       31.0099818514
  H        -5.8662817599        8.9212536118       25.3621032573
  H        -6.5931710289        9.0697293275       26.9337857726
  C        -7.0568933335       10.6153105738       25.6100749959
  C        -2.3177090109       16.4344364285       35.2241775891
  S         4.7389737996        9.8356955220       11.1301412396
  C         4.3684058754        6.8738299989       11.3604966549
  H         6.1439127828        8.4028825690       31.6125654657
  H         4.5203666854        8.0562299596       31.6717549906
  C         5.5691185881        6.7079452111       30.3512901993
  H        -6.5762298372       10.8557702321       24.6201518730
  H        -7.1183613398       11.5080014061       26.2402793335
  C        -8.5014700760       10.0955832727       25.3723036848
  H        -2.0350205583       17.5113994369       35.2234237705
  C        -2.9499927402       15.9961480365       36.3981337906
  H         5.2407302820        7.1844765335       10.7640463714
  H         4.5296834459        5.8137870581       11.5060964583
  C         3.0514701594        6.8798646812       10.5815575945
  H         5.7083110876        6.8827250095       29.3454751972
  H         4.7097966202        6.0839659673       30.3513985835
  C         6.8340568394        5.9922237149       30.9097052434
  H        -8.8876967932       10.7408976858       24.6339939096
  H        -8.4069889634        9.1018775755       24.9173480277
  C        -9.2769138782       10.1044860920       26.6702923113
  S        -3.3799735865       14.3449678495       36.8187968982
  C        -3.1755743722       16.9266426034       37.4746644256
  H         2.8122866814        7.9333817153       10.3472468863
  H         3.0840441692        6.2238603981        9.7039684083
  H         2.2512794024        6.5241562707       11.2853027642
  H         7.3323706919        5.5650766506       30.0262118488
  H         6.7633418622        5.2234810994       31.6523759130
  H         7.4951674188        6.7116464449       31.2380217198
  H        -9.2369233916       11.1192112351       27.0612677759
  H        -8.9480388268        9.3405012861       27.3740171205
  H       -10.2797025285        9.9230836218       26.2747241810
  C        -3.8235741419       15.0280202344       38.3817549950
  N        -3.7952738259       16.3707398464       38.4941559253
  O        -2.7634403055       18.1099628048       37.4197907732
  S        -4.5514147448       14.1120543532       39.6763808050
  C        -4.0056516541       17.0000514374       39.7649313817
  H        -4.2508508547       17.9884440851       39.4751318689
  H        -4.8865145054       16.6541116950       40.3158983095
  C        -2.8213600231       16.8938585128       40.6914496011
  H        -3.1007545103       17.1309218083       41.6907421597
  H        -2.3825398674       15.8914902246       40.6782694307
  H        -2.0142300711       17.5962840216       40.4150560809
  H         7.3948681863       10.8769130200        3.4017304804
  C         8.1100995179       10.0746161054        3.3778878117
  H         7.5203674067        9.1481971110        3.4948454019
  C         8.8577161089       10.0810370238        4.7023781737
  C         9.0955642623       10.0403402486        2.1944983118
  C         8.1441136865       10.6004742292        5.9100598709
  H         9.1072648377        9.0445317491        4.9396103748
  H         9.7784643552       10.6730635285        4.6488202528
  H         9.9079389359       10.6916470014        2.4258554641
  H         8.6533607916       10.4602091041        1.2856837393
  H         9.5555526480        9.1112680025        2.1248477669
  C         7.6680314520        9.3968355549        6.7384972196
  H         8.7371013493       11.1973100053        6.6469580315
  H         7.2547185375       11.1095250317        5.5716189876
  C         7.0195902141        9.7993000661        8.0039333667
  H         8.5489870187        8.8109181874        7.0336075456
  H         7.1550241757        8.7181875421        6.1313127308
  C         5.7201397851       10.5306692632        7.8061928880
  H         7.7466449219       10.3179829972        8.5923488326
  H         6.9169167156        8.9136101972        8.6682216128
  C         4.5611966436        9.7900748463        7.0655546446
  H         5.3598635335       10.8508198616        8.7932693992
  H         5.8307804350       11.5002417912        7.1881494060
  C         3.3132106975       10.5751125579        6.8544484597
  H         4.2700193616        8.9091886688        7.6219992659
  H         4.9006031451        9.4367779476        6.1360267028
  C         3.5591847702       11.9790972246        6.2882109750
  C         2.7293706470       11.1675586583        8.0925743999
  C         2.1740914457        9.7405095000        6.1491441377
  C         3.0671844267       12.9940666587        7.0343755363
  C         4.0930074840       12.3706847188        5.0914462926
  C         2.6777301515       12.4987009215        8.2353795596
  C         2.1645886899       10.5068903524        9.1184567367
  H         2.5234399558        9.4368480030        5.1526211921
  H         1.9056944633        8.8747260599        6.6724792429
  C         0.9311189220       10.6179529422        6.0145939450
  S         3.3446877016       14.5769698586        6.3730748187
  C         4.0825239081       13.7378198204        4.9688013524
  H         4.4877497531       11.6098290223        4.4101708060
  C         2.1328844128       13.0215697896        9.3443046058
  H         2.1607931242        9.4261691435        9.1402807358
  C         1.7128465321       11.0130262415       10.3314161774
  H         1.1943646428       11.4312147942        5.3501861543
  H         0.4436567109       11.0401082061        6.8830303811
  C        -0.1451117818       10.0270744417        5.1832658569
  C         4.5383608127       14.4286295225        3.6964174825
  C         1.6771041567       12.3531769568       10.5143010587
  H         2.0651441399       14.0548482772        9.3233716206
  C         1.2828551680       10.5582516297       11.5997471226
  H        -1.0502051942       10.5898219139        5.3115403820
  H        -0.3323343456        9.0261348586        5.6433680255
  C         0.2501070649        9.9324548930        3.6317526047
  C         4.5362225602       15.8279587820        3.4409759504
  C         4.8676257160       13.6628774912        2.5188202354
  C         1.3305712412       12.9817080101       11.8734360319
  C         1.0240942312       11.6158665230       12.4685945360
  S         0.9926785400        9.0901585016       12.2927278630
  H         1.0106695745        9.1367758780        3.4449062388
  H         0.5912871312       10.8473451043        3.1592071149
  C        -1.0879216584        9.6164390559        2.8793247859
  N         4.1414537743       16.7706334728        4.3975792898
  C         4.7608193228       16.4015913860        2.1792964509
  C         5.1513132548       14.1792872709        1.2862561861
  H         5.0220711933       12.6075022004        2.6826103990
  C         0.1462456197       13.9513143486       11.7987391198
  C         2.5944011577       13.5838940929       12.5086974128
  C         0.4331778660       11.2103622821       13.6924266286
  C         0.5099427684        9.8527382350       13.7464176246
  H        -1.6518183990        8.9637765096        3.4726168743
  H        -1.7420708533       10.4419177968        2.8240695886
  C        -0.9457466964        8.9846504325        1.4812413102
  S         4.2498590894       18.2466068073        3.7109642302
  N         4.7297753696       17.7980610099        2.2311409558
  C         5.2095976959       15.6582577112        1.0730368459
  H         5.3902308400       13.4423349465        0.4901306610
  H         0.3900421043       14.8430542768       11.2627958914
  H        -0.1225698727       14.2751631972       12.7967517606
  C        -1.0801972587       13.2821538583       11.0752772172
  H         3.5030440903       13.3538836487       11.9132017691
  H         2.4948949680       14.6854195987       12.3139927706
  C         2.8908131424       13.3319395104       13.9660950106
  H         0.3141708658       11.9915005463       14.3873945431
  C         0.3225009186        9.0624330288       15.0262507536
  H        -1.9600288728        8.7867675580        1.1874462439
  H        -0.4069298493        8.0081656295        1.4397295218
  C        -0.1778633685        9.8302548269        0.5593644567
  C         5.3279895776       16.3719562535       -0.1542573516
  H        -0.7847256562       12.8170220322       10.1285726152
  H        -1.4414985156       12.4380310010       11.5985085309
  C        -2.2764492939       14.2269041448       10.8591227633
  H         3.1214413466       12.2843362784       14.1681751413
  H         1.9475875573       13.5688967537       14.4653090534
  C         3.9732724807       14.2080079233       14.5770753197
  C         0.3534729328        7.6423765709       15.2429666872
  C         0.0931251941        9.8220121339       16.2588580327
  H         0.0342549113       10.7997318621        1.0287045767
  H         0.7720868416        9.3578265002        0.4970199727
  C        -0.6848556026        9.9045925490       -0.8772291359
  H         5.1942000726       17.4576776346       -0.1137282627
  C         5.6244176898       15.9497592974       -1.3980029278
  H        -2.1838498260       14.8008197716        9.9665918887
  H        -2.4655488649       14.9301930655       11.6982674520
  C        -3.5588417429       13.4818838398       10.6018487309
  H         3.6334946684       15.2046206235       14.1697329786
  H         3.8452281884       14.2142078759       15.7489772461
  C         5.3663837700       13.7702649485       14.2638795338
  N         0.6219163538        6.7288180641       14.2460996399
  C         0.2870745904        7.1144521434       16.5299813375
  C        -0.1717521955        9.2627479802       17.5240415761
  H        -0.1017923730       10.8722322745       16.1200782044
  H        -1.6651536882       10.3161271626       -0.8973307738
  H        -0.5775740781        8.9858902913       -1.3907787595
  H         0.1112642977       10.4918838590       -1.3621043468
  S         5.9888641587       14.3332389400       -1.9128579110
  C         5.6819522591       16.9755408385       -2.4540434511
  H        -3.3659423796       12.4960963328       10.1967244652
  H        -4.0831009562       13.2884905706       11.5462337852
  C        -4.5850236993       14.1424848003        9.6021270418
  H         5.3843575727       13.2426210732       13.3638866768
  H         5.7636339247       13.1261450672       14.9983140323
  C         6.4121846506       14.9031618816       14.1714194069
  S         0.8052226345        5.3049765275       15.0510681182
  N         0.3694597163        5.7482798179       16.5004558579
  C         0.0136427208        7.8516386691       17.7481916412
  H        -0.4926709855       10.0092161479       18.2711414065
  C         6.1258609351       15.0477668099       -3.5626819583
  N         6.0355070840       16.3623884407       -3.6067389971
  O         5.6318278491       18.1650047108       -2.3084707704
  H        -5.0387845398       14.9316727791       10.2039977157
  H        -4.0154460896       14.6766130497        8.8078068357
  C        -5.6081914584       13.1302331799        8.9971920337
  H         7.3972942664       14.5699867876       13.8510464364
  H         6.1417773494       15.7319243528       13.4775897702
  C         6.5143514254       15.7699940807       15.3685357506
  C        -0.3380419037        7.0131882953       18.9299799733
  S         6.4930443011       14.1528661616       -5.0063475686
  C         5.7384579531       17.0855523009       -4.8565489511
  H        -5.3034906132       12.7867820794        8.0475483364
  H        -5.7093453442       12.3076791252        9.6197129273
  C        -7.0042472745       13.7025453852        8.9008530142
  H         6.3983079805       15.1922126727       16.3028281127
  H         5.6193537328       16.3183785191       15.3891136108
  C         7.6453783255       16.8538057963       15.3795609581
  H        -0.4205091466        5.8886653905       18.7985734051
  C        -0.8676717044        7.4135691099       20.1186107381
  H         6.4056797155       16.7410880882       -5.6164771472
  H         5.9737143695       18.1295093170       -4.7787223732
  C         4.2939279508       16.9204466946       -5.2904140679
  H        -7.5000640618       13.2510523604        8.0301436981
  H        -6.9700570578       14.7411145928        8.5783718448
  C        -7.8625651131       13.6008739477       10.1661499276
  H         7.4883104335       17.5617506602       16.2175571933
  H         8.6307335459       16.3308657525       15.6540864329
  C         7.7466820379       17.5472502217       14.0174753284
  S        -1.2613028436        9.0204247896       20.5041405807
  C        -1.0396290972        6.4689835867       21.2562712327
  H         3.6353149573       16.5471236644       -4.5809149759
  H         4.3672253655       16.2304003101       -6.1976017993
  H         3.9821692571       17.8360368694       -5.6664487005
  H        -8.8905648052       13.5301511040       10.0042100814
  H        -7.5880829600       12.7098952940       10.7854655839
  H        -7.6730897804       14.3955194438       10.8051181515
  H         6.7380685297       17.8843868969       13.7872794188
  H         8.3094807698       18.4826880167       14.1891000839
  H         8.2505289053       16.9534267666       13.1729162566
  C        -1.7967013032        8.4428891477       22.0886052576
  N        -1.6864599041        7.0738734883       22.2597472408
  O        -0.7989519153        5.2587643087       21.0312854574
  S        -2.6460887750        9.4036485912       23.3629552635
  C        -2.2457206913        6.3562674450       23.4339352978
  H        -2.5178931686        5.3257433123       23.1917789258
  H        -3.1847642615        6.7407976430       23.8526953289
  C        -1.3472356610        6.4916179705       24.6263211537
  H        -1.3364466745        5.5817801569       25.2953881487
  H        -1.6366594274        7.3111935551       25.1879972980
  H        -0.3203609273        6.7158020802       24.2950307555
