352
i =
  H        -3.1444008175       15.4538338105       16.3382742705
  C        -2.9927089598       14.4827002608       16.4029955400
  H        -3.7352853197       13.8583347234       16.7137801539
  C        -1.8676288403       14.4342119347       17.5900587983
  C        -2.3546779261       13.9587913669       15.1900113056
  C        -2.4937208514       13.8927575321       18.8641328654
  H        -1.1098537725       13.7084086243       17.1901898326
  H        -1.4872141601       15.5340751086       17.7773730398
  H        -3.0593501580       13.9562003935       14.3555699090
  H        -1.4183263863       14.4956536496       14.9837916038
  H        -2.0185804813       12.9066307564       15.2629277197
  C        -1.3214449782       13.7195189989       19.8951069927
  H        -3.0679400017       13.0405426080       18.7468676517
  H        -3.2386810292       14.5412099310       19.2036915973
  C        -1.9906258606       13.6013486994       21.2308730809
  H        -0.6609003445       12.8434201255       19.7275969521
  H        -0.5092668953       14.5451479649       19.8968666784
  C        -1.0872624154       12.8873735495       22.2137985121
  H        -2.8429113408       12.9762464278       21.0634400656
  H        -2.1435062162       14.4859933224       21.7908130030
  C        -0.0429608095       13.8704807579       22.6041250721
  H        -1.7062610951       12.6378865715       23.0742971260
  H        -0.8034578482       11.9424246744       21.6997404229
  C         1.1451565068       13.1957502766       23.3672213284
  H         0.5213742059       14.3173953202       21.8057315446
  H        -0.3089703007       14.5848014584       23.3950954336
  C         1.5525304016       11.9074801520       22.6764994535
  C         0.6556254412       12.4039796656       24.5666735680
  C         2.4637332241       14.0147694612       23.4104040826
  C         1.3068609079       10.8056295059       23.4741164106
  C         2.0350011755       11.5925006181       21.4173443897
  C         0.7054938492       11.0648707295       24.6791849340
  C         0.0368907959       13.0254945596       25.7033960106
  H         2.8135381926       14.4533630630       22.4591925003
  H         2.2968810383       14.7769029411       24.2464621439
  C         3.7256121701       13.3149496202       23.9207483178
  S         1.7345258315        9.4001694482       22.6650836430
  C         2.1592057612       10.2558450106       21.2107126126
  H         2.1798244535       12.2992768796       20.5350714902
  C         0.2752946446       10.3401368910       25.7889878079
  H         0.0024200050       14.0912734971       25.5634568222
  C        -0.3785177771       12.2959505130       26.7976792020
  H         3.9563820756       12.3780645268       23.4883159072
  H         3.6559164170       13.0908823300       25.0690541321
  C         4.9278971159       14.2358465412       23.9844411465
  C         2.4787762403        9.5556894159       19.8265246583
  C        -0.3158785690       10.9238735354       26.9268586364
  H         0.3604478390        9.3768760699       25.8674134356
  C        -0.8190147093       12.5446937291       28.0424790331
  H         5.7523522976       13.8512854730       24.5842511787
  H         4.6650076298       15.0889614043       24.4172777554
  C         5.5978342137       14.5353618564       22.5297757808
  C         2.3711420746        8.1677044722       19.6373799851
  C         2.8975133667       10.4721470407       18.7297067384
  C        -0.7762856664       10.0633708393       28.0836752046
  C        -1.1165557678       11.4729450849       28.8402340113
  S        -0.9811784069       13.9800073434       28.9178771969
  H         6.2248755099       15.4089460613       22.5265625790
  H         4.8346674524       14.9478479669       21.9291848419
  C         6.3302954948       13.3327368470       22.0912376244
  N         2.2184632776        7.1442312915       20.5880704934
  C         2.6732545571        7.6456448640       18.3642010814
  C         3.1568915164        9.9205246820       17.4962170727
  H         3.0918182718       11.4595289701       19.0146433209
  C         0.4501731665        9.1832875409       28.7500963218
  C        -2.0917908576        9.2852236185       27.8057841150
  C        -1.4901927004       11.8049636731       30.1460955995
  C        -1.4559451357       13.0883419652       30.3437756005
  H         6.9599321807       12.7835836508       22.7401843001
  H         5.5390389001       12.6599434029       21.8936010985
  C         7.2003259212       13.4072836601       20.7012209803
  S         2.4768290749        5.6783478183       20.0008530737
  N         2.5846401589        6.1721811775       18.4638136658
  C         3.0244195592        8.3911168960       17.2515154323
  H         3.4519697923       10.5335981415       16.6788439660
  H         0.7355804432        8.4955963187       28.0387043465
  H        -0.0551722023        8.5561421230       29.4466964343
  C         1.4189985881       10.0746946216       29.3638997035
  H        -1.8748791989        8.5333076274       27.1092146881
  H        -2.3505928739        8.8222984691       28.7226962074
  C        -3.2356529778       10.2422165316       27.4336264381
  H        -1.7284216438       11.0589235645       30.8042256351
  C        -1.8460687857       13.8912080691       31.5511118241
  H         7.4211380290       12.4340080747       20.5734077136
  H         8.0108081939       14.1116634979       20.8486696279
  C         6.2244013881       13.7917517070       19.6615816456
  C         3.3892671885        7.8263651725       16.0539702935
  H         1.9539370283       10.8134115269       28.7151380633
  H         1.0981947071       10.6812710065       30.2085450937
  C         2.5192813257        9.3032737115       29.9547370095
  H        -2.9320059830       11.0061196638       26.6507345807
  H        -3.6007098699       10.8767540993       28.2380924197
  C        -4.3607502189        9.3879364542       26.9116737171
  C        -1.8336770013       15.3042333181       31.6643197431
  C        -1.9481551570       13.0602430860       32.7645564727
  H         5.4369160868       13.1403181231       19.6195497025
  H         5.8675832233       14.7269142951       19.7526062579
  C         6.9100232691       13.7841092455       18.2630358674
  H         3.2565061588        6.8234828088       15.8616463896
  C         3.8121880191        8.2647756265       14.8817511575
  H         2.9981409377        8.8198672966       29.1796320510
  H         2.0697825035        8.5558816412       30.5224137117
  C         3.4428980613       10.1892793543       30.6901340867
  H        -3.8935159408        8.7852914943       26.0341145052
  H        -4.6761159613        8.7195879920       27.8136877609
  C        -5.5287290859       10.2575445344       26.3947171037
  N        -1.5017215238       16.2422341721       30.6955677129
  C        -2.0521195749       15.9116663691       32.9086891996
  C        -2.1534922293       13.7626773868       34.0283324839
  H        -1.8068292280       11.9816569474       32.7417519856
  H         6.1578048586       14.0149736978       17.6194318943
  H         7.6574968283       14.6377510620       18.2602132634
  H         7.2259833373       12.7567958400       18.1159085265
  S         3.9221373796        9.8831713368       14.4274803518
  C         3.9920869791        7.3447350297       13.7159259422
  H         3.5042324733       11.2046768933       30.2620205786
  H         3.0878012837       10.2778961192       31.6987252556
  C         4.9296227117        9.6914144350       30.8023966228
  H        -5.2882864259       10.6484569089       25.4390618356
  H        -5.5140358760       11.0803512442       27.0202268152
  C        -6.8185771955        9.4698617310       26.4827813145
  S        -1.4869252229       17.7372716312       31.3410806808
  N        -2.0695398376       17.3397587320       32.7616513385
  C        -2.3830167543       15.1789423755       34.0932696637
  H        -2.0387022475       12.9648510812       34.8782360979
  C         4.1834614972        9.3602626165       12.7405999568
  N         4.2848110312        8.0462113512       12.6107945298
  O         3.9098744827        6.1037760218       13.8088084281
  H         5.3980054811       10.4700313103       31.2957727109
  H         5.3920810177        9.5124807166       29.8592467198
  C         4.9368645888        8.4084220783       31.7003068187
  H        -6.8736604721        8.5150380522       25.8843403527
  H        -7.3245254543        9.4201727813       27.4432682001
  C        -7.7560550363       10.2905894423       25.5807397843
  C        -2.6127531740       15.8712709294       35.2583805984
  S         4.5340037041       10.4644299465       11.3908718641
  C         4.2034194431        7.4116874130       11.2313589922
  H         5.8029722505        8.5953001224       32.5920018172
  H         3.9133352254        8.3931688570       32.1876630571
  C         5.2950397747        7.2620208922       30.9209436115
  H        -7.2364088103       10.1335250450       24.7250764144
  H        -7.5771987257       11.3224746247       25.8964860611
  C        -9.1611517643        9.8036517422       25.4198080997
  H        -2.3391843905       16.9202777165       35.3180923907
  C        -3.0761760102       15.5791583629       36.4698742344
  H         4.7136195545        8.1689016021       10.6216407429
  H         4.6417668167        6.3861933112       11.0162785617
  C         2.8495043459        7.2404290802       10.7013978078
  H         6.2343077669        7.1786197150       30.5220102481
  H         4.5898111982        7.0646220731       30.1356387694
  C         5.3477456617        5.9657246783       31.7695919964
  H        -9.7698159760       10.3584565301       24.6949706325
  H        -9.2936807114        8.8630872179       25.2595303550
  C       -10.0374416498       10.0597214947       26.7081092335
  S        -3.6502600096       13.9587114832       36.9595496984
  C        -3.2257751404       16.5907526200       37.4412783373
  H         2.0765476828        7.0178680211       11.3879687670
  H         2.4130009319        8.0872823740       10.1527293888
  H         2.8545602488        6.4527317462        9.8571711787
  H         5.2023485976        5.1315198423       31.1480168003
  H         4.6734006508        5.8870091368       32.5618877208
  H         6.3989064329        5.7888048284       32.0908454832
  H        -9.3752587254       10.5403771663       27.3523540002
  H       -10.6209864740        9.2173167781       27.1050541591
  H       -10.7753997405       10.8140549065       26.4567237219
  C        -4.1093047016       14.7476395485       38.5214254175
  N        -3.9010198953       16.0277437031       38.5702657580
  O        -2.9275595311       17.8082760736       37.3457255533
  S        -4.9213290969       13.8457667763       39.8092592151
  C        -4.1571203772       16.8286851297       39.7630344821
  H        -4.3806876316       17.8466043467       39.5630677781
  H        -5.1104456513       16.4039837070       40.0937096292
  C        -3.1075849505       16.6487121790       40.8259377476
  H        -3.4778481453       15.9201264330       41.5423453841
  H        -2.2276918146       16.3735675909       40.3553135068
  H        -3.0388117250       17.6697903713       41.3248204785
  H         7.7585108331       11.0756429499        3.2235902149
  C         8.2813108875       10.2308294787        3.3252855714
  H         7.5705045951        9.5004823085        3.1644597438
  C         9.0349613904       10.3554106334        4.6430473407
  C         9.1282855367       10.1468175162        2.0279504998
  C         8.1565131543       10.7128051610        5.7947778321
  H         9.5924675118        9.4457825415        4.8041199671
  H         9.9311099164       11.0331627077        4.7329621074
  H         8.5380739249       10.4910441520        1.2285836732
  H         9.5270528469        9.1186466643        1.8614715275
  H         9.9346932699       10.8387965143        1.9847028918
  C         7.2849815775        9.5207934077        6.3112393203
  H         8.6836725636       11.0302139325        6.7618908163
  H         7.5169293595       11.5628256669        5.6224099807
  C         6.5313439318        9.8262395888        7.5649096072
  H         7.9728711297        8.7586663379        6.5205019411
  H         6.5825279021        9.3233908331        5.4807682050
  C         5.3553964573       10.6128758517        7.4516819808
  H         7.2422867035       10.3734727840        8.2945159717
  H         6.3675255225        8.8007300913        8.0841052831
  C         4.0550614262        9.8672518369        7.1191830146
  H         5.1073030176       11.3792559876        8.2783890939
  H         5.5284952102       11.2543369619        6.6748858550
  C         2.7686430614       10.7191884213        6.9760060284
  H         3.8893399901        9.1348473662        7.9622681586
  H         4.2611078004        9.3314904062        6.1187968013
  C         3.1747947755       12.1677438342        6.3037116385
  C         2.2871618348       11.4931460876        8.1940700534
  C         1.7078224230        9.9767068302        6.0846715221
  C         2.8619684910       13.2544784382        7.1004428686
  C         3.6039035696       12.5846193324        5.0475347674
  C         2.4075975278       12.8711259238        8.2983623280
  C         1.7466825637       10.8878934921        9.3764745862
  H         2.0663584305        9.7379469476        5.0485180221
  H         1.4644233892        8.9978858287        6.5257753238
  C         0.3957207617       10.8627493750        5.8958058029
  S         3.3185379776       14.7841022193        6.3035801128
  C         3.7905259463       13.8847798942        4.8885774646
  H         3.8323967181       11.8650856914        4.2129945993
  C         2.0249850870       13.6140701799        9.4242996736
  H         1.7540185281        9.8617647179        9.3448469307
  C         1.4523969270       11.5687023595       10.4695485413
  H         0.7211557662       11.8275645363        5.4338602930
  H        -0.2235740924       11.0404950837        6.8626023755
  C        -0.7669264375       10.3558451921        4.9273961109
  C         4.2651855819       14.5510377547        3.5657460128
  C         1.4681675432       12.9406672221       10.5815578744
  H         2.1443325934       14.6086596328        9.5086032854
  C         1.1053870421       11.2028246757       11.7185492334
  H        -1.6090549248       11.1751097742        4.8001178884
  H        -1.3448549244        9.3860768302        5.3903085577
  C        -0.2465137714       10.1133971960        3.4718650858
  C         4.2133187932       15.9026961177        3.2796069799
  C         4.6108206498       13.6258036729        2.4174547512
  C         1.1966176428       13.6611656665       11.8524470712
  C         0.8192819102       12.2679926252       12.5450093372
  S         0.8744291879        9.6968155592       12.5489948484
  H         0.1755217566        9.0027026605        3.4200239888
  H         0.4504600432       10.8610596141        3.1868364250
  C        -1.3214312707       10.2474673899        2.2991341833
  N         3.9574915312       16.8543736664        4.3274715317
  C         4.5403247308       16.4836563841        2.0530944892
  C         4.9944859208       14.2518366405        1.1943049612
  H         4.5310970477       12.5833705094        2.5880234242
  C        -0.2306323192       14.3744900279       11.7517294621
  C         2.3248242211       14.3942277151       12.6070016161
  C         0.4157339703       11.8732830802       13.8217490009
  C         0.3834311819       10.5880267171       13.9979049059
  H        -2.0240601784        9.3938036698        2.4529514589
  H        -1.9430681079       11.1267762015        2.6594622059
  C        -0.7263815459       10.1292389745        0.9351821121
  S         4.0207190247       18.3567792006        3.7235582228
  N         4.3547876458       17.9230560406        2.1746055808
  C         4.9871442432       15.7642023554        0.9618478895
  H         5.3045063918       13.5999282247        0.4444441396
  H         0.0894321165       15.3037263522       11.2110150646
  H        -0.4466238352       14.7483096817       12.8137635810
  C        -1.4155568972       13.5483930578       11.1869804775
  H         2.7430606340       15.1985368414       12.0615093554
  H         2.2128260689       14.8846222256       13.5478192259
  C         3.5310722987       13.4369620548       12.9747540984
  H         0.2760861979       12.6270245179       14.6389542632
  C         0.1818138848        9.7569334892       15.2934903822
  H        -0.3055093870        9.2535674108        0.6620134558
  H         0.0557896043       10.8646616611        0.6404483174
  C        -1.7619287409       10.4632721511       -0.2441983607
  C         5.1745129132       16.3899674710       -0.2926734620
  H        -1.2199829613       13.0984764326       10.1495821816
  H        -1.8355692319       12.6811059339       11.8627295401
  C        -2.6166477305       14.4131059771       11.0620423551
  H         3.9486332089       13.0436613065       12.0146082910
  H         3.1481697133       12.6170392447       13.6246807936
  C         4.4353943098       14.2801108331       13.7636925603
  C         0.2493098672        8.3180684049       15.3713862065
  C        -0.2681300284       10.5105638941       16.4815107632
  H        -2.4845114468        9.7339371632       -0.1869742742
  H        -2.2860758834       11.2336774739        0.1060498266
  C        -1.0534442523       10.7215264159       -1.5902926183
  H         5.1518344347       17.5252569690       -0.2807682859
  C         5.3343892479       15.9452500643       -1.5150399508
  H        -2.5117736640       15.0406230039       10.2266709579
  H        -2.7663092579       15.0724331635       11.8757594686
  C        -3.8108735391       13.4434709408       10.8214184016
  H         4.7836632884       15.0699368768       13.0140640920
  H         3.9802394848       14.7781178714       14.6410875788
  C         5.7262679201       13.6695121359       14.2945009991
  N         0.5488487510        7.3844504528       14.4347027974
  C        -0.1002708320        7.7494983724       16.6208243893
  C        -0.4965010117        9.8680089667       17.7368601421
  H        -0.4694779348       11.4855975850       16.3122448035
  H        -1.7249287645       11.0951836649       -2.3129887027
  H        -0.3359388452        9.9348986167       -2.0267875734
  H        -0.3594995744       11.5866291352       -1.5434481691
  S         5.5710308013       14.3052180846       -1.9194682426
  C         5.4617227255       16.8897929902       -2.6041658965
  H        -3.4413762833       12.4654925572       10.2886497206
  H        -4.3543247053       13.1228144374       11.7711181819
  C        -4.8918776788       14.0296137979        9.9229479411
  H         5.9117991628       12.6433351291       13.8175005319
  H         5.6549631238       13.5461564039       15.4079501153
  C         7.0515650051       14.5628124943       14.0749952804
  S         0.3693975363        5.8452205438       15.0203072844
  N        -0.1288577902        6.3061005056       16.5121118495
  C        -0.5191808040        8.4109043524       17.8358115002
  H        -0.7631011734       10.5582518430       18.4757003095
  C         5.7021622372       14.8350266789       -3.6326410595
  N         5.6843864617       16.1312376160       -3.7497969932
  O         5.2826375517       18.1013617970       -2.4809668125
  H        -5.7410453070       14.3373427241       10.5909292166
  H        -4.5404504959       14.8762632738        9.4557403929
  C        -5.3126100109       13.0268652824        8.8954944612
  H         7.8496229856       14.1350126360       14.3490896438
  H         7.0961899381       14.7821520497       13.1277723951
  C         6.9788415340       15.8637604268       14.8952693663
  C        -0.7906247250        7.7012884694       18.9841699653
  S         6.1783905350       13.7726979392       -4.9871174078
  C         5.6565232764       16.8372739767       -5.0478844686
  H        -4.6292221387       13.1526951373        8.1800484293
  H        -5.2443265455       12.1114224577        9.2566715778
  C        -6.7490688370       13.2811653825        8.3291176834
  H         7.1853041816       15.5385538391       16.0105566544
  H         5.8730017124       16.3016152636       14.8630545750
  C         7.9955757902       16.7827750484       14.4194164041
  H        -0.4110667256        6.6605856810       19.1854114834
  C        -1.3639519112        8.0165152658       20.1944927677
  H         6.2219585142       16.2549453216       -5.7874938549
  H         6.0938496128       17.8498388963       -5.2054494014
  C         4.1398304675       16.9906505294       -5.4181048134
  H        -6.7690537096       12.4915627002        7.5512394687
  H        -6.9150102258       14.1543796821        7.9191877570
  C        -7.7733884430       12.9966179158        9.3888918156
  H         8.8381927959       16.2435034843       14.2066157570
  H         7.6571322347       17.1703392266       13.6269287198
  C         8.3694143796       17.8334533236       15.3984296760
  S        -2.1023234383        9.5370954941       20.5338878425
  C        -1.3414071125        7.0520945654       21.3441614019
  H         3.7523570698       18.0276423134       -5.3722177809
  H         3.5438457624       16.4767563530       -4.7292706202
  H         4.0141970259       16.6831066003       -6.4330334971
  H        -8.7208614403       12.7702634309        9.0231797720
  H        -7.4427924590       12.1707060272        9.9832163760
  H        -7.9563131531       13.7846865906       10.0416955188
  H         9.2935747313       18.3458094292       15.0871682443
  H         7.5478672806       18.5504573037       15.6253219813
  H         8.7970459808       17.4234347029       16.3183967858
  C        -2.4522820534        8.8543308796       22.1888032731
  N        -2.0248402454        7.6434289893       22.3126134623
  O        -0.8754845360        5.9179256356       21.3232140376
  S        -3.1882807200        9.8165759597       23.4284936788
  C        -2.2667767935        6.8938204831       23.5959222928
  H        -2.4872389218        5.8331534977       23.4868693666
  H        -3.0407327814        7.4400789236       24.0344603211
  C        -1.1296802602        6.9172437269       24.6168100892
  H        -0.3981816097        6.2422594343       24.3858627599
  H        -1.4503751445        6.7578038948       25.5532246837
  H        -0.6529248045        7.8641612209       24.6132058336
