352
i =
  H        -2.7743255507       15.4440100852       16.6711540572
  C        -2.9045338823       14.3754784257       16.5440671757
  H        -3.9616863080       14.1451659725       16.7283958944
  C        -2.0753268869       13.5081367739       17.6290568835
  C        -2.6542016964       13.9272460304       15.1094251092
  C        -2.8356322951       13.4585113856       19.0171317123
  H        -1.9128248072       12.5206248057       17.1422540080
  H        -1.1108862102       14.0451918397       17.7761573228
  H        -3.4276597255       13.1483622181       14.8439677937
  H        -2.7179311176       14.6832797621       14.2212319727
  H        -1.7005441071       13.3958277981       15.0548298997
  C        -1.7634323902       13.0036208491       19.9997483368
  H        -3.5524995977       12.6923376641       18.8017252397
  H        -3.3117322151       14.4930735137       19.3216216359
  C        -2.1851334691       13.0735576625       21.4940102818
  H        -1.6621315591       11.9333906462       19.7035940548
  H        -0.8277989531       13.3718742704       19.7806240910
  C        -1.2734964699       12.3555623888       22.3435469340
  H        -3.1225083766       12.5607918535       21.5427811181
  H        -2.3802791413       14.1286729364       21.8533539722
  C        -0.0347214537       13.3100946494       22.6553529260
  H        -1.7309738261       12.0976426245       23.2857499391
  H        -0.9372476296       11.4378516426       21.8491944587
  C         1.1825537588       12.8190913894       23.4098471551
  H         0.3837679830       13.5889444587       21.7635508608
  H        -0.4546755445       14.1981534747       23.0970900085
  C         1.6124112180       11.5156998308       22.8081280401
  C         0.6985436660       12.2645633564       24.7220518800
  C         2.3652648777       13.7610488557       23.4487232970
  C         1.3237235654       10.4944379243       23.6804504146
  C         2.1042349533       11.0979160616       21.5566201314
  C         0.7072679909       10.9081672635       24.8455785557
  C         0.1324961514       12.8943794881       25.7998618664
  H         2.5249960138       14.0280067985       22.3852062571
  H         2.2852598021       14.4242309263       24.2920629644
  C         3.6381193257       13.0848299985       24.0294544296
  S         1.6869136370        8.8878687282       22.9938073974
  C         2.1190558148        9.7173324651       21.4727610390
  H         2.3776429492       11.9401120638       20.9764541996
  C         0.1969742996       10.3375333940       26.0095206605
  H         0.0680386533       13.9680709556       25.7722929560
  C        -0.2833257279       12.3403527122       26.9594718301
  H         3.9319199429       12.1533429017       23.5031640602
  H         3.2970395770       12.7229034477       24.9689904472
  C         4.8132978988       14.0575328743       24.2921634476
  C         2.5990425614        9.0375199444       20.2442719983
  C        -0.2585932910       11.0065357994       27.1126757266
  H         0.0879431175        9.2709463989       26.0115555849
  C        -0.7971600277       12.8133660086       28.1953724594
  H         5.2643633964       13.6847249059       25.2118396450
  H         4.4074141084       15.0627148918       24.6088668077
  C         5.6491925851       14.2741054945       23.0240215184
  C         2.3069319071        7.6630949546       19.9923715640
  C         3.0674488348        9.7859980397       19.0427795796
  C        -0.8843597777       10.3924452082       28.3077044954
  C        -1.1749216219       11.7742421653       29.0108998090
  S        -1.0676874197       14.3147826495       28.9794052993
  H         6.3564482853       15.1172660333       23.0875022643
  H         4.9002941950       14.5907500027       22.4110117254
  C         6.2057195308       13.0496131355       22.2581761782
  N         1.8494765276        6.7773268798       20.8969296524
  C         2.5779714651        7.0516594471       18.7381697524
  C         3.4095100643        9.1845502799       17.9090201204
  H         3.1743348448       10.7958442116       19.2660909143
  C         0.0766096546        9.5568557759       29.1339271364
  C        -2.1016759158        9.5358701200       28.0176873252
  C        -1.4725492923       12.1982786164       30.3389952875
  C        -1.4980341438       13.5545143385       30.4563179888
  H         6.6242514349       12.2896960053       22.8369612858
  H         5.4382390834       12.6007243216       21.7315861251
  C         7.3089161625       13.3385583751       21.3407919047
  S         1.9689696965        5.2670797482       20.2832125842
  N         2.1543258847        5.6860866269       18.6739503104
  C         3.0342531891        7.7861020007       17.5747506779
  H         3.6819731099        9.7803310445       17.0513872894
  H         0.3857206673        8.7377353436       28.5735669645
  H        -0.5362491299        9.2180965285       30.0278920686
  C         1.3405773449       10.3577178363       29.4396565677
  H        -1.8905062392        8.4936017779       27.7580556463
  H        -2.6005103981        9.2694341465       28.9885465633
  C        -3.1123000503       10.1905023110       27.0717556457
  H        -1.6245596264       11.4407367166       31.0016626047
  C        -1.7656368366       14.2641078383       31.7308228459
  H         7.9810685482       12.3967356882       21.2091056236
  H         7.9649976183       14.1426450244       21.5732322963
  C         6.8411626236       13.7254960109       19.8858005258
  C         3.1527294115        7.1299710606       16.3658868584
  H         1.7780265609       10.6845171550       28.5328366142
  H         1.3652362633       11.0943365024       30.1212366364
  C         2.4413079197        9.3228097222       29.9410034985
  H        -2.6118463138       10.4312035860       26.1094260624
  H        -3.2208711202       11.0598978298       27.5806436494
  C        -4.3868534047        9.3816492947       26.9405135524
  C        -1.8007899353       15.6867283507       31.9037062853
  C        -1.9750872928       13.4952659501       32.9348267183
  H         6.0327945845       13.0218299923       19.5076604558
  H         6.4866033029       14.7034445362       19.7825908019
  C         8.0554697672       13.9168800652       18.9859764631
  H         2.7560679752        6.1543676702       16.4122132705
  C         3.3517686285        7.3735136055       15.0008270541
  H         2.6633786279        8.6644337239       29.1404257585
  H         1.9852671788        8.6413188335       30.6960746373
  C         3.6501922448        9.9766944308       30.3445880742
  H        -3.9504939783        8.5367913858       26.5755738531
  H        -4.7432730690        9.2110665965       27.9127430879
  C        -5.3006584444       10.1027540290       25.9362970098
  N        -1.6416431020       16.5706065425       30.8903632603
  C        -2.1343759237       16.2188236910       33.1270681973
  C        -2.3234605185       14.0210167318       34.1499239492
  H        -1.9239407221       12.4660343711       32.9408944998
  H         8.7400786883       14.5332971399       19.4288648843
  H         8.5055854475       12.9747829975       18.8177772410
  H         7.7730627674       14.2289666275       18.0282151060
  S         3.8520509404        8.9419529837       14.3915207826
  C         3.1173759831        6.2973549432       13.9949537828
  H         3.7378365464       10.9859406707       29.9401473340
  H         3.5095277218       10.1641501054       31.4685715478
  C         5.0590247782        9.3139725305       30.0950190227
  H        -4.7064676986       10.5251186197       25.0314751100
  H        -5.7625146026       10.9829589030       26.4305226869
  C        -6.4998651350        9.2902077421       25.5538336878
  S        -1.8166904067       18.0654859695       31.4807910349
  N        -2.1614105194       17.6411017452       33.0248728838
  C        -2.5516041437       15.5190164399       34.2505912660
  H        -2.3686126388       13.4162965221       35.1045860155
  C         3.8284632515        8.1668374839       12.8239123982
  N         3.5974470210        6.8306502587       12.8543661748
  O         2.9319333910        5.1193408762       14.1768277293
  H         5.6640006529       10.0824692170       30.3755629267
  H         5.1377559130        9.3421203729       28.9869793196
  C         5.1619656912        7.9163672774       30.8758178268
  H        -6.2568051849        8.5168206518       24.8272280624
  H        -6.9379599688        8.7914307012       26.3953709923
  C        -7.6561282688       10.1694119945       24.9550071994
  C        -2.8440286766       16.3183095157       35.4420218761
  S         4.1915949989        8.9648503024       11.3269742690
  C         3.5112009106        5.9613913111       11.6629880978
  H         5.4796285248        8.1156751380       31.8448778448
  H         4.1795725984        7.4480032142       31.0226494325
  C         5.9777425335        6.9104272124       29.9966206330
  H        -7.7077031342        9.6928068020       24.0205783384
  H        -7.3536819586       11.2588741151       24.9732798729
  C        -8.9562336227        9.9044736064       25.6463937635
  H        -2.7682004796       17.4167865543       35.3668299476
  C        -3.0940230232       15.9761069891       36.7214950289
  H         3.9953786992        6.4371910138       10.8264678787
  H         3.8840110628        4.9947220512       12.0739791142
  C         2.0880310415        6.0351224716       11.2436085923
  H         6.7965563964        7.4444101448       29.6058146836
  H         5.3978733622        6.6669291246       29.2026436630
  C         6.5948064542        5.8307066675       30.8614414071
  H        -9.7316461356       10.2364484279       25.0742383520
  H        -9.2625385754        8.9050524647       25.6603773751
  C        -8.9762995333       10.5805580058       27.0341411426
  S        -3.5785160791       14.3612682398       37.2266862624
  C        -3.0657992852       16.9849777503       37.7417388648
  H         1.8948493157        7.0334797154       11.3326639061
  H         1.8196309290        5.6477013117       10.2939990959
  H         1.4605512765        5.5524669301       11.9729688495
  H         5.9088901036        5.1759778659       31.4298103163
  H         7.3231730362        6.1511244228       31.5857712579
  H         7.1959340805        5.2009857059       30.2144123301
  H        -8.6226871542       10.0353102917       27.8371566702
  H        -9.9808905422       10.6994882449       27.3550761965
  H        -8.4181153187       11.4866476590       27.2206459598
  C        -3.7986070023       15.0866579121       38.7967895207
  N        -3.3904728718       16.4060913005       38.9618724721
  O        -2.8811805308       18.2216609972       37.6713032988
  S        -4.2777877129       14.2239993271       40.3278087558
  C        -3.3407942318       17.0550951043       40.1729978789
  H        -3.9902980574       17.9452513820       39.9865870134
  H        -3.8012300142       16.5491376606       41.0348989080
  C        -1.9044125007       17.4737732009       40.5590056759
  H        -1.4763495841       18.3356845787       40.0112210255
  H        -1.7994865255       17.6156529002       41.6275322516
  H        -1.1408055987       16.7458217357       40.2126159952
  H         7.2303082412       10.9753105065        3.1955666933
  C         8.0722589794       10.1991251514        3.4821948087
  H         7.5287940420        9.1842809533        3.7231287603
  C         8.8483261843       10.6123539699        4.7405590332
  C         8.9891135831       10.1281897937        2.3294777912
  C         7.8659697446       10.7304560934        5.9788062169
  H         9.4693833958        9.7706314869        4.8867892965
  H         9.6184587472       11.4219597812        4.6602314370
  H         8.3716898586       10.1177728157        1.4161395751
  H         9.6948594796        9.2881999834        2.2644759442
  H         9.5774188416       10.9872005426        2.1471407636
  C         7.3243896336        9.3948472774        6.4700743575
  H         8.2709096482       11.1470292273        6.8308682663
  H         7.1841099039       11.5688266124        5.8753143804
  C         6.3950239847        9.6663680249        7.6948067702
  H         8.2117853286        8.9149107567        6.9167218116
  H         6.7439340304        9.0054331131        5.6921051606
  C         5.1269035532       10.4980048739        7.5415579364
  H         6.9409581101       10.3196509300        8.3507333536
  H         6.2814559196        8.8236416893        8.2885286097
  C         3.9742706732        9.8174928295        6.8701540713
  H         4.8046480480       10.9006042468        8.4760904991
  H         5.5753481312       11.2917305897        6.9677425635
  C         2.7462654797       10.6649916256        6.9487666936
  H         3.7817391786        8.9060376689        7.3046318565
  H         4.2999033110        9.6776768671        5.8298039513
  C         2.9814408166       11.9491347885        6.2204264668
  C         2.3810502818       11.3158207418        8.2461926217
  C         1.4706697736        9.9403157720        6.3471757911
  C         2.9011333647       13.0357952719        7.0819421802
  C         3.3530493422       12.3000353785        4.9173926717
  C         2.4676871879       12.6124142017        8.3248861910
  C         1.9876395933       10.7161982369        9.4326808884
  H         1.9578949872        9.3554848702        5.4147272509
  H         1.0999819731        9.1304942816        7.0232449099
  C         0.1434791921       10.8180501024        6.0719580804
  S         3.2998398747       14.4634089597        6.3418753105
  C         3.5863851880       13.6482118585        4.8848644154
  H         3.5126306366       11.5240618543        4.1468861438
  C         2.2695817716       13.2109098767        9.5417978531
  H         1.8679414514        9.6777598729        9.3055411217
  C         1.7197632935       11.3107900841       10.6125278632
  H         0.5266952886       11.8266724899        5.8504945117
  H        -0.3896646872       10.9939107541        7.0385414731
  C        -0.9621611006       10.4182471872        5.0787587855
  C         4.1288730969       14.3597444234        3.6577907328
  C         1.8914878349       12.6137261497       10.7115354430
  H         2.5286408348       14.2125976369        9.5901859729
  C         1.2051921669       10.8900290277       11.8623370808
  H        -1.6146518245       11.1554920783        5.0263590806
  H        -1.5226050111        9.5970085299        5.4877721786
  C        -0.3627000548       10.0240757002        3.7710870044
  C         4.3576890863       15.8682431670        3.4237655056
  C         4.6177942349       13.4989623809        2.5248511228
  C         1.4493641504       13.3034733953       11.9581805016
  C         1.1013329665       12.0054343371       12.6587919830
  S         0.8465477763        9.3963460207       12.6536221869
  H         0.2362170204        9.0766688395        3.8677517506
  H         0.4012575092       10.7705041888        3.5161560242
  C        -1.5181974752        9.8404840151        2.7068268603
  N         4.0972979054       16.8612236001        4.3215099923
  C         4.6697783695       16.3309232059        2.1537498351
  C         4.8035696133       14.0795999022        1.2708965913
  H         4.3929476834       12.4203295852        2.5422033965
  C         0.0625314897       14.0852044915       11.8680145095
  C         2.5152425506       14.1200897914       12.7265615176
  C         0.6892747373       11.6991791065       13.9099382379
  C         0.6257775594       10.3451513150       14.1430607712
  H        -2.2478352593        9.1970460691        3.0070641622
  H        -2.0188134076       10.7907192455        2.5674038427
  C        -0.7758322173        9.2120214477        1.5053514485
  S         4.1909344065       18.3319413453        3.5888267658
  N         4.5892564846       17.7160610192        2.1457966684
  C         4.7925970579       15.5486890077        1.0410872012
  H         5.0232702961       13.4882719653        0.3770052569
  H         0.2781976039       14.7075969143       10.9256018967
  H        -0.0450714926       14.7500200879       12.6895016075
  C        -1.0942704988       13.3282363296       11.4149394158
  H         2.8461233979       14.8535383932       12.0695599712
  H         2.1001402297       14.6039676998       13.5898581778
  C         3.6465444867       13.2315078032       13.2327710316
  H         0.4664787450       12.4630471024       14.6198788932
  C         0.1291913312        9.5365444351       15.3325247367
  H        -0.3720410407        8.1980595976        1.5947826932
  H         0.1957174350        9.8282713099        1.2279377303
  C        -1.6112072763        9.4089434253        0.2142889868
  C         5.0716354032       16.2590587778       -0.1498302088
  H        -0.8478035782       12.5957697404       10.6169372810
  H        -1.3692112269       12.7725041985       12.4260072741
  C        -2.3653908060       14.2102667500       11.1591787057
  H         3.9413812985       12.6115873834       12.4028373817
  H         3.2378598468       12.6256906488       14.0885041537
  C         4.8928841057       14.0545647047       13.6205270847
  C        -0.1690793977        8.1581277586       15.4123369714
  C         0.0029374603       10.2285355674       16.6664168213
  H        -2.5251958861        8.8839151440        0.2518523691
  H        -1.9852285917       10.4279071619        0.2855354172
  C        -0.9728215065        9.0766159790       -1.1336044725
  H         5.0426939795       17.3987223175       -0.0426074258
  C         5.3984639650       15.8407848669       -1.4428202923
  H        -2.0639178252       14.9360938720       10.3772445533
  H        -2.8292847724       14.7396447215       11.9773509682
  C        -3.4960677110       13.4180353551       10.4540433839
  H         5.3864654672       14.3970011878       12.7122813771
  H         4.5121177952       14.8279463603       14.2311360931
  C         5.8360709787       13.2117746665       14.4244577884
  N         0.0470822927        7.2608579141       14.3789714121
  C        -0.4983629889        7.4657634422       16.5906253552
  C        -0.4388106091        9.6217587683       17.7796005784
  H         0.2506589628       11.3208998137       16.7222004284
  H        -1.3117507059        8.0584247809       -1.4324810622
  H         0.0752172068        9.1520191450       -0.7448570644
  H        -1.1929577228        9.9219857182       -1.8208716452
  S         5.5611193281       14.2124777369       -1.9649875209
  C         5.5979328161       16.8373580034       -2.5176261046
  H        -3.0499958683       13.0046637475        9.5164061645
  H        -3.6762982880       12.4628393881       11.0467026887
  C        -4.8049375301       14.1983266511       10.1860476429
  H         5.7183913239       12.2216576179       14.0821475308
  H         5.6159000410       13.1724016621       15.5492915382
  C         7.3334915407       13.7577623719       14.1844624000
  S        -0.1574097911        5.7096528329       14.9740055359
  N        -0.5822720884        6.1418369785       16.4467781534
  C        -0.6480456543        8.1494582975       17.8092592356
  H        -0.6193539945       10.2203054002       18.7237197800
  C         6.0724615253       14.7869976683       -3.5934604371
  N         5.9616746519       16.2098137976       -3.7353642873
  O         5.4401721884       17.9757484532       -2.3962127138
  H        -5.2743845512       14.4653477763       11.0626455829
  H        -4.5971104945       14.9377654790        9.4350124482
  C        -5.8080578982       13.1950559960        9.5275314861
  H         7.9124632917       12.9831985089       14.6867685874
  H         7.8375692733       13.7536411358       13.2298250819
  C         7.6821139641       15.0201553769       14.8978463540
  C        -0.9666461434        7.2676301045       18.9067193102
  S         6.3270640082       13.8051822590       -5.0785969363
  C         6.1143193455       16.8423533776       -4.9916694196
  H        -5.3156206189       12.6285266637        8.7324662722
  H        -5.9365319640       12.2723088546       10.1463575944
  C        -7.1789792149       13.8099031098        9.1394627813
  H         8.7390152499       15.0144625579       15.2841462958
  H         7.0377834783       15.2978040753       15.6712304758
  C         7.3331268638       16.2999916945       14.0624332716
  H        -1.1263666051        6.1641857374       18.7081253230
  C        -1.3060929032        7.5332583250       20.1902967930
  H         6.6413800216       16.3448065311       -5.7111080119
  H         6.2708498398       17.9563791156       -4.8815859628
  C         4.7180423253       16.8199195882       -5.6536239030
  H        -7.5121344616       13.1986401640        8.2132364079
  H        -7.1421939147       14.8232766130        8.9388182193
  C        -8.0890774289       13.7132172322       10.3268089862
  H         7.5717066472       16.1850282464       13.0630901418
  H         6.1585111009       16.4807183104       14.1319377172
  C         7.7704777236       17.6528595723       14.5675451435
  S        -1.5921268624        9.0458129342       20.8681992745
  C        -1.5261097684        6.4048369709       21.1104722231
  H         3.9992119229       15.9743379103       -5.5277783618
  H         4.8823259386       16.7103461704       -6.6818498277
  H         4.2251173869       17.6951521751       -5.5481473750
  H        -7.7489954806       14.3836323683       11.0626126350
  H        -9.0297048763       13.9963761030        9.9380265415
  H        -8.3458819638       12.7043510578       10.6273403845
  H         8.8645474226       17.6506308189       14.7115060051
  H         7.4495074926       18.5004124523       13.9234567116
  H         7.3558523096       17.7628251478       15.5629876380
  C        -2.0345081577        8.2605920630       22.3412133067
  N        -1.9302191780        6.8819465985       22.2791042591
  O        -1.1787731787        5.2582176485       20.9105994528
  S        -2.1427854231        9.0218909537       23.9571986610
  C        -1.9379473738        6.0624295219       23.4822213879
  H        -2.1234550773        5.0660801458       23.1372942299
  H        -2.7018955702        6.3361792922       24.2281002645
  C        -0.5494835069        5.8820206126       23.9355516926
  H        -0.6554167177        5.1254790570       24.7229120718
  H        -0.0884584907        6.7108287116       24.4083959354
  H         0.3323345004        5.4947145421       23.3462590671
