352
i =
  H        -3.0368891469       14.8769571755       16.6020893514
  C        -2.8564738112       13.7980238285       16.6964787730
  H        -3.7651989736       13.2684633166       17.0741120380
  C        -1.5157090449       13.5685072834       17.5325773740
  C        -2.7853377586       13.4215015789       15.1953458535
  C        -1.6766900547       14.1487285529       18.9464663168
  H        -1.2370395206       12.4620644298       17.5361122841
  H        -0.7446150099       14.0938093225       17.0185683358
  H        -1.9691697095       12.7476754449       15.0282898194
  H        -3.7492236275       12.8651346840       14.8929875213
  H        -2.7781729644       14.2654674638       14.5366808693
  C        -2.2249278584       13.1586440073       20.0554823672
  H        -2.2286851885       15.1211255305       18.8649054047
  H        -0.7055300708       14.4896505646       19.2449689789
  C        -2.1085687629       13.5794403292       21.5125414550
  H        -3.2853305767       13.0208716884       19.9265901108
  H        -1.7902446305       12.2307955023       19.8459399725
  C        -1.0458116405       12.8759522376       22.3046191341
  H        -2.9939107820       13.2569360855       22.1303480110
  H        -2.1043695444       14.6618535171       21.5310107574
  C         0.1142200295       13.8338365951       22.6908015411
  H        -1.5090407781       12.5178557917       23.2168146933
  H        -0.5466295768       12.1304418512       21.6166086909
  C         1.3467874079       13.1896191342       23.3076400908
  H         0.2641677766       14.3113290853       21.7075250623
  H        -0.1827108518       14.6746249428       23.2946098513
  C         1.7535738878       11.8551310414       22.6424276811
  C         0.8111479518       12.5048552308       24.5866707210
  C         2.4151734714       14.1461887445       23.6714140631
  C         1.4083078700       10.7706034481       23.5016095762
  C         2.3047957912       11.4149294395       21.4574873046
  C         0.9190320007       11.1562684889       24.7200819184
  C         0.1855739856       13.1464328868       25.6847845759
  H         2.8352749999       14.5347137387       22.7498734776
  H         2.0226535430       14.9023862667       24.2760699152
  C         3.5714161782       13.4341863162       24.3405199701
  S         1.7363635082        9.2415673559       22.8356455177
  C         2.3198832849       10.0405898888       21.4105712622
  H         2.6447069801       12.0725629467       20.6287323374
  C         0.3495042313       10.5536614059       25.8569976345
  H         0.2567076440       14.1997457233       25.7390832357
  C        -0.2295090387       12.5576300150       26.8407390655
  H         3.8777030674       12.5952601658       23.7603316079
  H         3.2185263718       13.0761703323       25.2684585512
  C         4.7188798160       14.3971008385       24.5529194512
  C         2.5752955946        9.2399047693       20.1835648711
  C        -0.2101003933       11.2388185611       27.0061387311
  H         0.4541657361        9.4281499402       25.8466340562
  C        -0.6130114453       12.9943655284       28.1068070685
  H         5.1842845249       14.1343409293       25.5523265128
  H         4.2394806293       15.3709544301       24.7651940076
  C         5.6745870585       14.6742433008       23.3534782848
  C         2.4211758143        7.8462994805       19.9274136258
  C         3.1263989027        9.9527861873       19.0107996790
  C        -0.5961784199       10.5688487689       28.2733324119
  C        -0.7954685594       11.8969910237       29.0076482701
  S        -0.9250233836       14.5407390732       28.9169334405
  H         6.3059874543       15.4993592908       23.6102660043
  H         4.9637323409       14.9723008668       22.5833334205
  C         6.6337447474       13.5156810960       22.9874959940
  N         1.9454978482        6.8997305563       20.8903668083
  C         2.6548261571        7.2197421809       18.6854870618
  C         3.2714480416        9.3912201042       17.7731213202
  H         3.4730047274       10.9976102237       19.1713645317
  C         0.7071264160        9.7480415208       28.8033553433
  C        -1.7900262748        9.6305264720       28.1684411362
  C        -1.0429994953       12.3451540646       30.3068075438
  C        -1.1794715530       13.6930029706       30.4049695617
  H         7.5734826283       13.9626067410       22.6661757093
  H         6.8277112492       12.8348095124       23.7965803846
  C         6.1276708074       12.5806351887       21.8637670502
  S         1.9999295950        5.3872626792       20.2530849497
  N         2.2858950968        5.8849109224       18.7218401966
  C         3.0501570870        7.9148547539       17.5522877788
  H         3.8044701640        9.9692107435       17.0739177447
  H         0.9856755094        8.8389280040       28.2215816861
  H         0.2442288942        9.2077606107       29.6276092247
  C         1.8596862770       10.5492824961       29.3261684104
  H        -1.4934127764        8.7664997924       27.4562226693
  H        -2.0759369752        9.2624317022       29.1269398152
  C        -3.0578243476       10.3842550674       27.6744204881
  H        -1.0963611152       11.7193053572       31.1579829795
  C        -1.3814650316       14.4272505726       31.7106921920
  H         5.1314556609       12.3032963125       22.1351261832
  H         6.7070097039       11.6837261531       21.9015210854
  C         6.0946202351       13.1331882414       20.4655077180
  C         3.2038024675        7.2763567385       16.2960294144
  H         2.4110129389       11.0792248139       28.5511385617
  H         1.5604403564       11.3097025571       30.0779077273
  C         3.0149576818        9.6778854488       29.9864603460
  H        -2.7636075834       11.0309331742       26.8452487002
  H        -3.2309417559       11.1136823359       28.5237494088
  C        -4.2435664755        9.5118762450       27.2258224902
  C        -1.3851187060       15.8591358023       31.8469806618
  C        -1.4986469433       13.6587939553       32.9996265644
  H         5.5409042382       12.4285254252       19.8107337163
  H         5.5822869743       14.1335966992       20.4185615162
  C         7.3840231838       13.2711907693       19.7794618477
  H         3.0816349730        6.2448383438       16.4603695129
  C         3.6453120754        7.7680501089       15.0426828338
  H         3.5400577772        9.0855397924       29.3156526879
  H         2.5859636822        9.0558628618       30.7999525888
  C         4.0521164038       10.6038717392       30.6809992883
  H        -3.8403392701        8.7496024944       26.4772208646
  H        -4.6251018304        9.0189248357       28.1691402536
  C        -5.3160613326       10.3620004655       26.6310778097
  N        -1.0447058110       16.7758215418       30.8025371194
  C        -1.7329800283       16.5341091356       32.9721874251
  C        -1.6929963878       14.3570407512       34.1391683546
  H        -1.4044932183       12.5890803285       32.9917014747
  H         7.7542201408       12.2193163931       19.7003828392
  H         7.2353582836       13.6950318414       18.7517248286
  H         8.1601039402       13.7581295546       20.3890924643
  S         4.0004630374        9.3363245140       14.5185059012
  C         3.6210566663        6.7844125693       13.9490232429
  H         4.1911582803       11.6187407320       30.2421961567
  H         3.5765895027       10.7404340612       31.6983743712
  C         5.4544555018        9.9488167753       30.7931495074
  H        -4.8518574463       11.1096569763       25.9366214136
  H        -5.7420206169       10.9598991688       27.4405863579
  C        -6.4950722866        9.5644436706       26.1155843373
  S        -1.4468208530       18.3024280122       31.2776233538
  N        -1.8486400644       17.9196462664       32.8204205262
  C        -1.9421827126       15.8097886492       34.1556112750
  H        -1.8784043197       13.8303384638       35.0598595625
  C         4.2043979410        8.6678538939       12.8302010817
  N         4.0480915459        7.3010152709       12.7862682168
  O         3.4919354348        5.6064575119       14.1771293084
  H         6.0902762935       10.5551696512       31.4907373516
  H         6.0441542546        9.9778491006       29.9322414873
  C         5.4761390942        8.5577467882       31.4093613732
  H        -6.1168216692        8.8740736886       25.4046323019
  H        -7.0970847728        9.0971136974       26.9622439736
  C        -7.5114767160       10.4628510364       25.3978305004
  C        -2.3402097561       16.5990800382       35.2921205712
  S         4.5375723947        9.5155789697       11.3217231705
  C         4.1931217271        6.4559772665       11.5789604029
  H         6.1293777375        8.7507865804       32.2702118999
  H         4.6606392476        8.1985306394       31.9615107524
  C         5.9005461480        7.4046886618       30.5319304759
  H        -7.1100392891       11.0754403198       24.5796036629
  H        -8.0381993669       11.2590592769       26.0091680721
  C        -8.6818446612        9.7017208042       24.6875531764
  H        -1.9587246092       17.6225437394       35.3020774056
  C        -2.8533849024       16.2534118648       36.5384556972
  H         5.0092386869        6.6989158054       10.9205511157
  H         4.3590083965        5.3858321828       11.8542132094
  C         2.8387602650        6.5106326993       10.8277790294
  H         5.2921698183        7.3149763110       29.6590921438
  H         5.8289322877        6.4508664438       31.1046518221
  C         7.3380346081        7.5238490768       30.0722388928
  H        -8.8655339016       10.1803291514       23.6940632669
  H        -8.3645771148        8.6937130378       24.5417399828
  C        -9.8760494315        9.6923297265       25.6081375787
  S        -3.3298423174       14.7045362711       37.0818801148
  C        -2.8221011464       17.2738851288       37.6108293115
  H         2.7517430611        5.6060861094       10.2962170847
  H         1.9453145198        6.5818897491       11.4332181992
  H         2.8374276563        7.1591935499       10.0383380656
  H         7.9629809924        8.1483527719       30.6549797309
  H         7.3869666128        7.8341253637       28.9687183162
  H         7.7586280740        6.5750782580       30.2370413802
  H        -9.5979723245        9.5276743343       26.6475136566
  H       -10.7145052642        8.9889749340       25.4560518248
  H       -10.3170686728       10.6881541996       25.7034058418
  C        -3.5871268372       15.3966674087       38.6965365284
  N        -3.3312838552       16.7255166929       38.7662114829
  O        -2.4025147786       18.3957917495       37.4406574620
  S        -4.3688082380       14.5926448823       40.0663573240
  C        -3.3348514481       17.4570839243       40.0449209086
  H        -3.5466556508       18.4797706791       39.7160726771
  H        -4.0334349971       17.1525348005       40.8863248861
  C        -1.8628188673       17.4297980975       40.5437327605
  H        -1.6219463988       16.4796536596       40.9926093412
  H        -1.2644928536       17.7213059184       39.7566762610
  H        -1.6741124862       18.1008589726       41.3611096613
  H         7.1438970336       10.5833142503        4.2515192705
  C         7.9057433905        9.8348534174        4.0866216200
  H         7.6220398413        8.8149795403        4.2487693468
  C         8.9626855535       10.1995096982        5.1063986400
  C         8.4235993982        9.8394498690        2.6830969658
  C         8.4277203245       10.4661041087        6.4585927598
  H         9.6280661657        9.3779447702        5.0475741214
  H         9.6347423595       11.0445942638        4.8948637581
  H         8.7525854621       10.8647781952        2.4648716014
  H         7.6662880203        9.6204723177        1.9840605631
  H         9.2180273790        9.1767923695        2.5575426519
  C         7.4617107265        9.3737721379        6.9436327590
  H         9.1812888132       10.6376304014        7.1619491571
  H         7.8791502988       11.4534885476        6.4246889466
  C         6.6597210323        9.6703853264        8.2749846359
  H         7.8794077637        8.3486524593        6.9425549538
  H         6.6647689913        9.0886036447        6.2465520645
  C         5.3283159585       10.4136192914        8.0446096039
  H         7.4166267314       10.2178866533        8.8436085790
  H         6.4990130103        8.7793745901        8.8597185293
  C         4.2016132111        9.5534759235        7.4178508376
  H         5.0139816795       10.8950159658        8.9950924146
  H         5.5880736353       11.1634405579        7.3981340411
  C         2.9103115536       10.4386925123        7.2060984056
  H         4.1341708816        8.8039202713        8.1640084018
  H         4.4150359839        9.0547063917        6.5320827032
  C         3.2623599756       11.7835716215        6.5443101757
  C         2.3965192974       11.1420067830        8.3813888923
  C         1.7976401728        9.7689397028        6.3774519421
  C         2.8129709825       12.8859127470        7.2539087073
  C         3.8242087432       12.2230999081        5.2988384916
  C         2.3803347927       12.4935958235        8.4810864749
  C         1.9638268717       10.4956006672        9.5574155120
  H         2.3886992679        9.3602705548        5.5178517000
  H         1.3601187884        8.9394890904        6.9845230748
  C         0.6205806470       10.6451514756        6.0349767551
  S         3.2161108849       14.3553723992        6.5810703280
  C         3.8822943108       13.5763980784        5.1692456111
  H         4.0834276586       11.4731361765        4.5358410469
  C         1.9210147675       13.1578500673        9.6020942778
  H         2.0304736785        9.4089471927        9.5146303803
  C         1.6719379225       11.1343284269       10.7307017040
  H         0.8188607309       11.5660273789        5.4382422093
  H         0.2322649339       11.0630831761        6.9836207991
  C        -0.4699219246       10.0170265228        5.3017943907
  C         4.3507588076       14.2759970614        3.9518381108
  C         1.6047299631       12.4907125285       10.8011053916
  H         1.8155211264       14.2459487564        9.6553693972
  C         1.3195550140       10.6639882769       11.9653070202
  H        -1.4325786524       10.4897446337        5.2236384631
  H        -0.7150656823        9.1136807200        5.7680015661
  C        -0.0003191535        9.6778740892        3.8969761554
  C         4.3413793053       15.6611506932        3.6204131123
  C         4.8617951403       13.4129926869        2.8258404143
  C         1.2233837615       13.1167849855       12.0997338080
  C         1.0681489297       11.7587966953       12.7460135867
  S         1.0127877256        9.1772754323       12.7174526906
  H         0.4767775729        8.7064003565        3.9591300974
  H         0.7600403699       10.3357251026        3.5663892074
  C        -1.0367443338        9.6079894325        2.7939139362
  N         4.0968189859       16.6802699836        4.5084863988
  C         4.5268413316       16.1042411483        2.2909059643
  C         5.0514962281       13.9233508967        1.5570206866
  H         5.0528611643       12.3682990953        3.0069492691
  C        -0.1000358337       13.9045751466       12.1492625338
  C         2.4171951613       13.9126170496       12.7667697765
  C         0.7574580868       11.4133472254       14.0398345220
  C         0.6911988391       10.0416404143       14.2111690036
  H        -1.6480024566        8.6859161253        2.8003202094
  H        -1.7193938978       10.4081528869        2.8759743038
  C        -0.4547658741        9.3784399010        1.3755059117
  S         3.8389616272       18.0116545762        3.6621923720
  N         4.4083862786       17.4599176802        2.2326739490
  C         4.8347536207       15.3117719756        1.1842678073
  H         5.4091315846       13.1961039509        0.7919138970
  H         0.0530750582       14.9372098375       11.8837383706
  H        -0.3841169462       14.0226492930       13.2430195127
  C        -1.2321677334       13.2594402125       11.2986656996
  H         2.8286334374       14.5780071777       11.9676077853
  H         2.0317524655       14.5398429116       13.5372463189
  C         3.5696262554       13.0221351926       13.3732074467
  H         0.6219028477       12.2463312100       14.7467002799
  C         0.3751126170        9.2914101934       15.4311631007
  H         0.1525203478        8.4812806609        1.4195071255
  H         0.2200004903       10.0900919746        1.0868253738
  C        -1.4771874584        9.2759336989        0.2705029093
  C         5.1737003692       15.9803724322       -0.0492267388
  H        -0.8430259542       12.8388407797       10.3885415912
  H        -1.7674102928       12.4730171794       11.8709394715
  C        -2.2273320275       14.3518343348       10.8998462523
  H         3.9511801807       12.3899265922       12.6255913045
  H         3.2011899226       12.3689213548       14.1431851434
  C         4.5675498180       13.9190271414       14.0156648395
  C         0.1326007448        7.9172334838       15.5686005226
  C         0.2032263972       10.0547680528       16.7243055455
  H        -1.3959287732        8.2696875018       -0.0992708995
  H        -2.5238493967        9.3652800738        0.7391217429
  C        -1.3100689519       10.3537017514       -0.7274674319
  H         5.0292483105       17.0754926826       -0.0106343628
  C         5.4252443075       15.4908558449       -1.2858163119
  H        -1.7161051045       15.1748362871       10.3956603502
  H        -2.7026508446       14.6864848617       11.8399387806
  C        -3.2710733492       13.8242152122        9.9298221217
  H         4.9363718366       14.6314524906       13.3009001078
  H         4.0939116255       14.4438367628       14.8643404653
  C         5.8179211750       13.0569116926       14.4944937666
  N         0.2342209245        6.9437068498       14.5375665344
  C        -0.3007310655        7.3509440931       16.7700419062
  C        -0.2119725362        9.4990937516       17.8951229767
  H         0.3863177545       11.1652176981       16.7193943838
  H        -0.3679587489       10.9994238080       -0.7833530229
  H        -2.1203532021       11.0892895631       -0.6783296245
  H        -1.3738119600        9.9703056296       -1.7919101915
  S         5.6654814137       13.8455991618       -1.7899515468
  C         5.4994467965       16.4790743848       -2.3963117856
  H        -3.4592520574       14.4675200602        9.1038471840
  H        -2.8761875613       12.8991833069        9.4960805652
  C        -4.5167488869       13.3361352860       10.6221583207
  H         6.2803883901       12.5128096899       13.6716836171
  H         5.4823370276       12.2553474611       15.1214266100
  C         6.8397646688       13.8908106653       15.2919889339
  S        -0.0306764195        5.4837491225       15.2373934858
  N        -0.4804569846        5.9972675527       16.6835729163
  C        -0.5254589064        8.0712961292       17.9442967437
  H        -0.2627093023       10.0746729324       18.7501673665
  C         5.9910381644       14.5407272136       -3.3750915477
  N         6.0681200654       15.8665724491       -3.4879255367
  O         5.5148410462       17.6778145179       -2.2229416795
  H        -4.1824157793       12.7142313951       11.5234935827
  H        -4.9518740576       14.1926962754       11.1079289010
  C        -5.5644088441       12.5713190659        9.7001480364
  H         6.2101585190       14.3772858072       15.9916325625
  H         7.4735290735       13.2386231067       15.8618916000
  C         7.6682694162       14.9596010247       14.5113250937
  C        -1.0274828950        7.3171266268       19.0317152431
  S         6.5427182997       13.5533565503       -4.7041234425
  C         6.4738206615       16.5686303235       -4.6984279836
  H        -5.0992416711       11.7568368877        9.0489569842
  H        -6.2862121551       12.1444337803       10.4688025865
  C        -6.5266607836       13.4222767515        8.8080455464
  H         7.2195154954       14.9023869254       13.4858656334
  H         8.6567643557       14.7181911253       14.3371895521
  C         7.4221861454       16.4255594118       14.9438081619
  H        -0.8234081978        6.2473724851       19.0495108726
  C        -1.5638854401        7.7557737794       20.1763372488
  H         7.1515313850       15.9699557904       -5.2589237266
  H         6.8468578799       17.6102333099       -4.5020405135
  C         5.1601865195       16.6234322457       -5.5983971387
  H        -6.7063605674       12.8515174006        7.9956758172
  H        -6.0930338271       14.3700007184        8.4711819803
  C        -7.8929486138       13.5944901247        9.4028176063
  H         7.7929734494       16.9772619467       14.0304951151
  H         6.3884608879       16.5810911472       15.0731239947
  C         8.2216759454       16.8118056217       16.1349516778
  S        -1.9626196182        9.3336276277       20.6688931433
  C        -1.6935813591        6.6918830253       21.2334321884
  H         5.2758812546       16.7940479554       -6.6522994197
  H         4.5886652988       17.5238904414       -5.1873871488
  H         4.5792629498       15.7100350501       -5.5310191181
  H        -7.7239016747       13.9281259939       10.3757404777
  H        -8.5006542426       14.3776420365        8.8615573284
  H        -8.4844716537       12.7154002979        9.5652049217
  H         8.0591612858       16.0868644499       16.9552101869
  H         9.2723070847       16.9708218989       15.9112559874
  H         7.8553656059       17.7275167060       16.5374501723
  C        -2.4455519992        8.6319960415       22.2503767865
  N        -2.1637326920        7.3143495231       22.3358470676
  O        -1.4350551096        5.4491313928       21.1426278468
  S        -2.9064997161        9.5105014654       23.7006546630
  C        -2.4417334293        6.5246291934       23.5741848882
  H        -2.7322692400        5.4225704143       23.3640679255
  H        -3.2067226887        6.9563906659       24.1798533042
  C        -1.2810460085        6.5524477347       24.5451834195
  H        -1.2297486284        7.3133345100       25.3703755323
  H        -0.3303828486        6.6996720196       24.0428934358
  H        -1.1142731241        5.5860381428       25.0571890842
