352
i =
  H        -2.7014481585       15.4550069337       15.6794419893
  C        -3.1027054479       14.4688268983       15.8773769900
  H        -4.1436415680       14.4781775959       16.1200360840
  C        -2.2886649421       13.8477072592       16.9509556379
  C        -2.8795472387       13.7988194902       14.4581657389
  C        -2.8251666080       14.0608348592       18.4219176245
  H        -2.2238401784       12.7548960055       16.7798031727
  H        -1.2714493704       14.2617754961       16.8786159569
  H        -2.6870753138       14.5614339655       13.7406705940
  H        -1.9713328665       13.1331258642       14.5101045653
  H        -3.7540743745       13.1749784494       14.2235668203
  C        -1.8158145725       13.3495178139       19.4152029164
  H        -3.7661706857       13.6398847468       18.6335055314
  H        -2.7216238286       15.0752181850       18.8434956069
  C        -2.3537446180       13.2773172318       20.8379599279
  H        -1.5696811742       12.3136882724       19.1037295550
  H        -0.8796943832       13.9240187466       19.4944435606
  C        -1.3659927192       12.8456697915       21.9665996053
  H        -3.2825094568       12.7371026976       20.8774061284
  H        -2.6110993854       14.3000382204       21.1530112066
  C        -0.1916812094       13.8127226394       22.2920453713
  H        -1.8387441983       12.7798728161       22.9585830080
  H        -1.0322301051       11.8428870722       21.6090773983
  C         1.0849769381       13.1592812658       22.7786479539
  H         0.0236334472       14.4725533590       21.4293079529
  H        -0.6385704890       14.4312389972       23.0605314579
  C         1.4781247595       11.8765662239       22.0805278261
  C         0.6367405056       12.4519734121       24.0236334888
  C         2.3609409386       14.0379528173       23.0799156958
  C         1.3381170825       10.7298073278       22.8253611570
  C         1.9968358693       11.5260397399       20.7889746716
  C         0.7233933971       11.0551628005       24.0599627561
  C         0.1422508731       13.0387853240       25.1504389274
  H         2.6260017288       14.4552438953       22.0721538627
  H         2.2103758226       14.8291057728       23.8781676432
  C         3.5887214755       13.4179326574       23.6026313176
  S         1.7203945637        9.2921733848       21.9993434651
  C         2.1759956365       10.1792694214       20.6359446877
  H         2.2920123670       12.3379900682       20.2041248654
  C         0.3085058535       10.4204434719       25.2188292294
  H         0.2069860092       14.1113343783       25.1217469320
  C        -0.1915439735       12.3964431645       26.2952947875
  H         3.8331422071       12.4733760750       23.1123801217
  H         3.4797002770       13.1147320707       24.6270159889
  C         4.7925318935       14.4032673353       23.5588622912
  C         2.6551801893        9.4669692952       19.3864009293
  C        -0.1564025446       11.0218675672       26.3905783054
  H         0.4432695273        9.4112797767       25.1783659766
  C        -0.5613514226       12.8112376805       27.5392374018
  H         5.6154851958       13.9661405887       24.0627631958
  H         4.5559549346       15.2287944589       24.2410610625
  C         5.3693942032       14.6991559232       22.0948968885
  C         2.6419893992        8.0301481629       19.1445813145
  C         3.1640303921       10.2019483450       18.1635090298
  C        -0.4860003721       10.3703703235       27.7251622909
  C        -0.6422564319       11.7509829743       28.4112721240
  S        -0.8525192396       14.3047897421       28.2364583785
  H         6.4212088808       14.8236890914       22.2821426257
  H         4.9888125655       15.5715298259       21.6078883475
  C         5.3413604378       13.4554827951       21.2144758844
  N         2.3357734370        7.0698894623       20.0774659675
  C         2.9775099449        7.4221516416       17.9527979180
  C         3.5586449470        9.5840956604       17.0032125853
  H         3.3959103262       11.2789285461       18.1905240958
  C         0.7885896224        9.5228345380       28.2282073875
  C        -1.7494875329        9.6001327304       27.6244783523
  C        -1.0970362892       12.1762198395       29.6462190940
  C        -1.1691762948       13.5361314190       29.7415733967
  H         5.8986135408       12.4847608800       21.5076015020
  H         4.3251081255       13.1726842528       21.1362641872
  C         5.6013720856       13.7289124829       19.7461476722
  S         2.2292950062        5.6234993407       19.4548493185
  N         2.7484511780        6.0016797038       18.0137650517
  C         3.3837827437        8.1347912949       16.8118810405
  H         4.0149546350       10.1456539422       16.1720008037
  H         1.2442288636        9.0616433443       27.3970239661
  H         0.4080636838        8.7144350051       28.8733258788
  C         1.9351068473       10.1873779524       28.9838739792
  H        -1.4864846216        8.7110861330       27.1330736533
  H        -2.0418149054        9.3118460130       28.7025230060
  C        -2.8886047661       10.3850567895       27.0027169439
  H        -1.3932406794       11.3809079980       30.3880901309
  C        -1.5622338388       14.3088317621       30.9970654851
  H         5.0478309803       14.6486694579       19.3892688389
  H         5.1015039458       12.8633597893       19.2043886667
  C         7.0520311910       13.7563705508       19.3955468367
  C         3.7176673500        7.3910945436       15.6526073379
  H         2.2723071966       10.9101687503       28.2584358547
  H         1.5623171667       10.8212467536       29.8116305522
  C         2.9891558532        9.1332154742       29.4447440898
  H        -2.6842359485       10.7102598115       26.0400895608
  H        -3.1540006075       11.2768288119       27.6029805583
  C        -4.1020996262        9.5655890135       26.7140638307
  C        -1.6646087420       15.7246683707       31.2188807654
  C        -1.8592386189       13.5869667820       32.2571821973
  H         7.4520783373       14.6387020725       19.9099341597
  H         7.6492031238       12.8878990275       19.8505494263
  C         7.1586293856       13.8407997680       17.8507084511
  H         3.7829192145        6.3888367127       15.8860017408
  C         4.0278290698        7.6834199873       14.3450780717
  H         3.5933999352        8.7525764632       28.6274033478
  H         2.2910730252        8.4684362650       29.8396108023
  C         3.7652738873        9.7620086533       30.6082039386
  H        -4.0342375577        9.0112028522       25.7638911695
  H        -4.1065933249        8.7883133986       27.4273151752
  C        -5.3952505047       10.3107274905       26.6714961655
  N        -1.4109365724       16.6622162096       30.2600635137
  C        -2.0804117299       16.3285585730       32.3924181596
  C        -2.1775380322       14.1858150998       33.4566258566
  H        -1.8000848388       12.4981600117       32.2189664581
  H         8.1873436327       14.3157370263       17.6690303792
  H         7.1984072649       12.8269093734       17.4067919964
  H         6.3770296217       14.4441106497       17.4362175781
  S         4.1364442227        9.2670071011       13.7996644083
  C         4.1648317121        6.6261589090       13.3075970507
  H         3.4156886565       10.7630024524       30.8663087888
  H         3.7749631301        9.0840725433       31.4530272977
  C         5.2227330589        9.8095758297       30.3335797234
  H        -5.0877790896       11.2561146614       26.3444219472
  H        -5.7373655728       10.5083472802       27.6682958928
  C        -6.5034756277        9.6675699285       25.8470439631
  S        -1.4325213510       18.1208205642       30.9166443205
  N        -2.0325316889       17.6961713238       32.3170327389
  C        -2.3213821859       15.6444949201       33.5721325646
  H        -2.2760945202       13.5317311584       34.3550603601
  C         4.3665977552        8.5948523627       12.2349340562
  N         4.3607976718        7.2251500187       12.1413191923
  O         4.0176844591        5.4474061367       13.5251712837
  H         5.7517168850       10.6662053934       30.7220803843
  H         5.2767088503        9.8977888514       29.2405379176
  C         6.0813555587        8.6242029260       30.8188019048
  H        -6.1317082841        9.1839078146       24.9181129597
  H        -6.9947673626        8.8287076193       26.4039899620
  C        -7.4202773650       10.7021618511       25.3373314282
  C        -2.7827640697       16.3258527026       34.7514706527
  S         4.8428639219        9.3940357467       10.7438830068
  C         4.2960685696        6.4573495464       10.8569418369
  H         7.1162842723        8.6950517963       30.4598732123
  H         6.2009929796        8.6025226307       31.9028128237
  C         5.5273305953        7.2695563818       30.3605748767
  H        -7.2043097145       10.9775407584       24.3303480052
  H        -7.3633755930       11.6809233645       25.8274864887
  C        -8.9007087682       10.3287349795       25.3388439243
  H        -2.6113899157       17.3423077332       34.7481834201
  C        -3.1723749956       15.9217282604       36.0267677378
  H         5.0197546787        6.8320515330       10.1046850963
  H         4.4319255918        5.4122937457       11.0737396457
  C         2.8616174332        6.5266987212       10.2884856466
  H         5.1886805363        7.3302455069       29.3015037098
  H         4.6125287066        7.0885273147       30.9921111312
  C         6.5036655711        6.1391244805       30.5049933445
  H        -9.3459857382       10.6139838751       24.4037724971
  H        -8.9921636330        9.2165301664       25.1453779150
  C        -9.6974586075       10.8257311765       26.5334202458
  S        -3.6243378492       14.3524576751       36.5553503054
  C        -3.2452426068       16.9262256173       37.1017886154
  H         2.7367619591        7.3832628709        9.6353311089
  H         2.5560896101        5.6110734546        9.8482200313
  H         2.1320621408        6.7865250213       11.1144053524
  H         7.3141528238        6.4246428196       31.2941581454
  H         7.0472853106        5.8129751978       29.5941403617
  H         5.9764215921        5.3251255338       30.9739884842
  H       -10.0503820587       11.8386447162       26.5511805254
  H        -9.0889906734       10.8517615132       27.3678659490
  H       -10.4437205982       10.1405511988       26.7015309606
  C        -3.9344610383       15.0572967655       38.1450514703
  N        -3.6943318924       16.3728807014       38.2429113905
  O        -2.9614097676       18.1007904978       36.9217097192
  S        -4.5651060096       13.9981034930       39.4321206234
  C        -3.8183645302       17.1270737922       39.5222605964
  H        -4.2750657080       18.0437243144       39.2990578631
  H        -4.4372999927       16.5941775136       40.3531945476
  C        -2.3567500702       17.4139197683       40.0923322418
  H        -2.3473512804       18.4495105910       40.5073585505
  H        -2.1585243408       16.5864767839       40.8586695388
  H        -1.6408571484       17.3993997718       39.3123253216
  H         7.5014005116       10.5819502317        3.2160603078
  C         8.3852468119       10.0020384904        3.3822825604
  H         7.9776735753        8.9812471712        3.6174508177
  C         9.1219416056       10.5851703387        4.4971935416
  C         9.0058493568       10.0991989460        2.0202146107
  C         8.4223649513       10.6771660431        5.8578553795
  H         9.8947639485        9.8486207293        4.5263602155
  H         9.5766862648       11.5422221072        4.2613754748
  H         9.3914756721       11.1225853173        1.7563409880
  H         8.3146169636        9.7889965092        1.1758708325
  H         9.8902529629        9.4939462615        1.7630049394
  C         7.8011561227        9.4139294242        6.3724982757
  H         9.1224390612       11.1098417127        6.6918331960
  H         7.6276326876       11.3843591257        5.6135987482
  C         7.0678354620        9.7050230944        7.7031055834
  H         8.5875322298        8.6996092353        6.4899043379
  H         7.1602268363        8.9261608337        5.6434423213
  C         5.8357342642       10.6251113816        7.5358993614
  H         7.7361397505       10.2505705039        8.3825162560
  H         6.7185401775        8.8552277555        8.2735474365
  C         4.7069037687       10.1485088237        6.6579232952
  H         5.4924641852       10.9151247366        8.5106581350
  H         6.0859840236       11.5970497108        7.0304041556
  C         3.4455351646       11.1065442384        6.4988958046
  H         4.4266218919        9.0931194606        6.8057506573
  H         5.1040214929       10.1754858244        5.6461825907
  C         3.8824400481       12.4601491853        5.8826380316
  C         2.9674324282       11.7735238351        7.7512850397
  C         2.3683716036       10.3850599849        5.7294351070
  C         3.5659809980       13.5468511071        6.7057952687
  C         4.3355480553       12.9060916731        4.6157708934
  C         3.0691759059       13.0925994453        7.9215920432
  C         2.3935037948       11.0753127918        8.8235065236
  H         2.7686683413        9.9612862173        4.8306340082
  H         1.9524477335        9.5885981478        6.3806409226
  C         1.1722578163       11.2697314815        5.3781771781
  S         3.7914671969       15.0734574832        5.9365291909
  C         4.1985328505       14.2606352381        4.4657953077
  H         4.6421809046       12.2420457843        3.8120641404
  C         2.6304244638       13.6181563756        9.0986160063
  H         2.2581505804        9.9979706575        8.7640157808
  C         2.0398906434       11.6018378116       10.0323451999
  H         1.5432616535       11.9372829483        4.5821153198
  H         0.6483138388       11.8495402199        6.1329382479
  C        -0.0187726595       10.5631497645        4.6969562383
  C         4.4723482914       14.9996650388        3.1981267205
  C         2.1106702161       12.9395931588       10.2112744566
  H         2.8580100316       14.6704695378        9.1831204333
  C         1.5712524471       11.1692385567       11.2748012234
  H        -0.8828031574       11.2717811882        4.5620245330
  H        -0.4881797668        9.8715192078        5.3791676033
  C         0.3840306822        9.9427123653        3.3656264239
  C         4.3426324148       16.4088425870        2.9925909143
  C         5.1083450623       14.2100309750        2.1456054105
  C         1.7164167262       13.5245861457       11.5358751950
  C         1.3754850505       12.2118342148       12.1242693129
  S         1.1329454953        9.5622459351       11.8356939719
  H        -0.3612342639        9.1463992901        3.0265170849
  H         1.4037597926        9.6607675058        3.3794530252
  C         0.2934137199       10.8644237488        2.1274202549
  N         4.0326614479       17.3719378290        3.9650776765
  C         4.6267221003       17.0360587113        1.7673501365
  C         5.2398676402       14.7836924095        0.8922208112
  H         5.3665713984       13.1406476069        2.2266888874
  C         0.5029177963       14.4574059649       11.2786877870
  C         2.8596948446       14.1954299990       12.3184706090
  C         0.9460176350       11.6749096128       13.3551579527
  C         0.9571673220       10.3120251813       13.3967125742
  H        -0.6331397504       11.5056513184        2.1999557347
  H         1.1665509229       11.5176134313        1.9817858081
  C         0.0928885185       10.0534880405        0.8687867932
  S         4.2660399204       18.8802720103        3.3524774415
  N         4.5541468144       18.4647614548        1.7920497779
  C         5.0293811881       16.2509620199        0.6418075285
  H         5.6432752074       14.2245852954        0.1475698103
  H         0.9205832540       15.1640706393       10.5073465489
  H         0.2325502781       15.0336488141       12.1556863880
  C        -0.6528939275       13.5731075068       10.8491831621
  H         3.2252764282       14.9219449997       11.6263796823
  H         2.4679293319       14.7226905882       13.2024724850
  C         4.0665871110       13.3353306709       12.7022121341
  H         0.7717240587       12.3028583595       14.1360894608
  C         0.6355479445        9.5705739978       14.6230163013
  H        -0.7157146225        9.3380516098        1.0184545782
  H         0.9231375107        9.4751380405        0.6211260877
  C        -0.0968322522       10.9157835733       -0.3987702152
  C         5.2333270390       16.9987637308       -0.5554670814
  H        -0.3379684709       12.9347946958        9.9622404552
  H        -1.0550800935       12.8824894908       11.5989817472
  C        -1.7961417454       14.5057691691       10.5282452130
  H         4.5663235390       12.9765035892       11.8033392583
  H         3.6594867668       12.4323113994       13.1677245483
  C         5.0530811974       13.9240701451       13.7233143213
  C         0.5951602135        8.1391600658       14.7706435374
  C         0.4887379793       10.3210070186       15.9233125319
  H         0.3154946049       11.9721945667       -0.3458873598
  H         0.4611865400       10.5428734430       -1.2127723555
  C        -1.6324491544       11.0556897355       -0.6844646936
  H         5.0953741523       18.0553437961       -0.5944644391
  C         5.5973160051       16.6151390931       -1.8349390059
  H        -1.5094653610       15.2696973600        9.8009849202
  H        -2.0888523513       15.1200182603       11.4094508568
  C        -3.0448872111       13.7831374883       10.1903338415
  H         4.5926986729       14.6928657787       14.3136240449
  H         5.2089982163       13.1314444791       14.4453198898
  C         6.4037180717       14.3557568292       13.0759435769
  N         0.7986042584        7.1909097665       13.7731472567
  C         0.2631955740        7.5314153418       15.9895569793
  C         0.0982860549        9.7258936253       17.0597165511
  H         0.6710973184       11.3405477459       15.9463810583
  H        -1.8573703656       11.9414295278       -1.2502106679
  H        -2.2187705461       11.3208728983        0.1696226250
  H        -1.8902756789       10.1219190766       -1.1934559249
  S         6.0050685737       14.9952041501       -2.3664378535
  C         5.5882159624       17.5934131724       -2.9242001610
  H        -2.7775175136       12.9285494400        9.5416405345
  H        -3.4581758964       13.3762998625       11.1579674455
  C        -4.1665576392       14.6924425073        9.5160928925
  H         6.1697626524       14.9005971045       12.1301539836
  H         6.8687935784       13.5579729336       12.6334516811
  C         7.3536322779       15.2235844371       13.9976166411
  S         0.4937055470        5.6729779523       14.3536107520
  N         0.2782660900        6.1585045320       15.9104738649
  C        -0.0808953857        8.1921987978       17.1627691198
  H         0.0443091623       10.3044795637       18.0437877236
  C         6.0040940336       15.6881834185       -4.0312700583
  N         5.9287814911       17.0342286032       -4.0851292242
  O         5.2269573114       18.7809980634       -2.8290289217
  H        -4.7165395640       15.3950595998       10.2018462598
  H        -3.7303677754       15.2867375096        8.6635931322
  C        -5.1556005860       13.7638080416        8.8295467250
  H         7.0033145811       15.1173190989       14.9644633520
  H         8.3504625061       14.7305585220       14.1089990001
  C         7.3884056668       16.7306044311       13.5615130288
  C        -0.4760313932        7.4056077523       18.3220641995
  S         6.4178402512       14.7431557513       -5.3910241204
  C         5.8862682764       17.7705379197       -5.3240070468
  H        -4.7512479151       13.4203097248        7.8413352625
  H        -5.3007295727       12.8545058263        9.4341528695
  C        -6.5207093253       14.3374494083        8.5287492643
  H         6.6637577000       16.8915072588       12.9028897410
  H         8.3105784421       16.9687799483       13.0925640811
  C         7.1985280719       17.6727859422       14.6898408336
  H        -0.3660539452        6.3714153862       18.2927310466
  C        -0.9739743259        7.7280358892       19.5700311482
  H         6.6151475735       17.4201565542       -6.0203812028
  H         6.0545221730       18.7982879156       -4.9416479840
  C         4.5605048680       17.6052241956       -5.9610396176
  H        -7.0406656860       13.6543960254        7.8480332992
  H        -6.4557094078       15.2823916025        8.0774050688
  C        -7.4003631019       14.3247261874        9.7471602483
  H         7.1183505732       18.6932874231       14.2147471351
  H         6.2109378300       17.4012614446       15.1590247872
  C         8.3101295475       17.6400261845       15.7687772633
  S        -1.3472520264        9.3153564933       20.2128012501
  C        -1.2541334090        6.6061945185       20.5230702885
  H         3.8360001021       17.5464346604       -5.1722324577
  H         4.4573097106       16.7525556038       -6.5537608745
  H         4.3230533856       18.4585680216       -6.5303737988
  H        -7.3116325278       13.4407420281       10.3055110158
  H        -7.3062786412       15.1549121058       10.3555872814
  H        -8.3994225087       14.1716239471        9.2767621234
  H         8.1550309912       18.3807487552       16.5647050681
  H         8.2157517379       16.6772356737       16.3188209403
  H         9.3307765602       17.7588647721       15.3976676880
  C        -1.8714849272        8.4435100985       21.7138782656
  N        -1.6892328832        7.1123922016       21.6731326603
  O        -0.9157228545        5.4132099145       20.2936484136
  S        -2.3408277578        9.2667969679       23.2651071534
  C        -1.9335078439        6.2120095617       22.8621688509
  H        -2.0490764861        5.1980812785       22.4969270428
  H        -2.7719619580        6.4308215115       23.5451690081
  C        -0.6004368228        6.2695257401       23.6616455643
  H        -0.5804794247        7.0765912426       24.3612561644
  H         0.2682884780        6.3564646979       23.0365559434
  H        -0.5509577385        5.4236053141       24.3182084284
