352
i =
  H        -2.8223459603       14.7056501941       15.9508931370
  C        -2.4776509645       13.6988384739       16.2087775225
  H        -3.2027732711       13.1854043553       16.7495759826
  C        -1.2036686937       13.7844747735       17.0287475637
  C        -2.2743672941       13.0657710768       14.8046407390
  C        -1.3494526135       14.1863403541       18.4733204904
  H        -0.6831638568       12.8050683944       17.0305015499
  H        -0.4362625976       14.3410949548       16.5281805200
  H        -1.4386140199       13.5681925495       14.3351539218
  H        -1.8877727038       12.0624886273       14.8445849986
  H        -3.0748633266       13.1037412755       14.1078112596
  C        -1.6708131401       13.0554224522       19.4509779779
  H        -1.9863282969       15.0303280721       18.6388942853
  H        -0.3080497013       14.5217943519       18.6467360766
  C        -2.0708705888       13.3367150674       20.8855950020
  H        -2.4714603544       12.4990660613       19.0407811311
  H        -0.7910043904       12.4156084667       19.4973743341
  C        -1.1702593579       12.7811402398       21.9415941224
  H        -3.0175049201       12.8137546696       21.0810136899
  H        -2.1791413703       14.3909020869       21.0801102431
  C         0.0770149836       13.6186871446       22.2416310007
  H        -1.6102780163       12.4322926670       22.8682083649
  H        -0.8651215951       11.8232691427       21.4709052978
  C         1.2704245406       12.9729615450       23.0680116398
  H         0.4044348968       14.1960854382       21.3915923470
  H        -0.3056271643       14.4855913427       22.8164862144
  C         1.6663220743       11.6695386651       22.3670920061
  C         0.9955258458       12.2466084528       24.2852934559
  C         2.4929729316       13.9373581563       23.2080416272
  C         1.5471864655       10.5073770353       23.1128256237
  C         2.1876932945       11.3453698899       21.0930336987
  C         1.0391760567       10.8703699671       24.3598077090
  C         0.5363123382       12.7803422831       25.4412191675
  H         2.6363923150       14.4963345149       22.2928494026
  H         2.1894083591       14.6015621472       24.0769172254
  C         3.8827777268       13.2447179088       23.4361532387
  S         2.1587771070        9.1183182514       22.3895394344
  C         2.4502521715       10.0242264492       20.9230829019
  H         2.2081072514       12.0681420764       20.3632889310
  C         0.7812616834       10.2721567588       25.5014512426
  H         0.4882422627       13.8519283423       25.5508223054
  C         0.1788290119       12.1806457455       26.6035812675
  H         4.3067341742       12.6977728598       22.5658874612
  H         3.7130033386       12.5830256826       24.3132990918
  C         4.9580081207       14.2315501881       23.7279413771
  C         2.6970226504        9.3674346725       19.6395655017
  C         0.2787327216       10.8397999110       26.7171127913
  H         1.0524145688        9.2336145412       25.4248636335
  C        -0.2506900206       12.6045981983       27.8692455108
  H         5.7632615784       13.8299613912       24.3445760159
  H         4.5700951115       14.9955989099       24.3646032977
  C         5.5218360286       14.8840567064       22.4643684814
  C         2.7295043380        7.9844849986       19.3532682022
  C         3.0188873335       10.2428949284       18.4714002052
  C        -0.1633859504       10.1407396678       27.9543215712
  C        -0.3996063101       11.5120532021       28.6983199008
  S        -0.3953716387       14.1012288251       28.7037812733
  H         6.0350969772       15.7991467901       22.6135767181
  H         4.7873635448       14.9757618895       21.6942041837
  C         6.5788611659       13.8356533134       21.9567743186
  N         2.4449048753        6.9700680066       20.2672031636
  C         3.0527246104        7.4369130319       18.1321266783
  C         3.2690609249        9.6950104996       17.1906031984
  H         3.0496870026       11.2963483505       18.5298792337
  C         1.0480670785        9.3093541194       28.5785280993
  C        -1.4133013618        9.2588772674       27.7547204341
  C        -0.9158552179       11.9338363632       29.9659754031
  C        -0.9364365742       13.2929572266       30.0906319126
  H         7.5423159671       14.3233009310       22.0731005533
  H         6.6237303761       12.9762976867       22.5733923643
  C         6.3254580611       13.4888949667       20.4537985768
  S         2.5470978102        5.5118915226       19.5536367478
  N         3.1093997959        6.0304616805       18.1171251008
  C         3.2758496507        8.2047435814       16.9670782323
  H         3.6794711683       10.3526747498       16.5055893698
  H         1.3491184872        8.5113814204       27.9535084426
  H         0.6693358660        8.8998304087       29.4973804631
  C         2.2467329288       10.0471366506       29.1175587132
  H        -1.1838043141        8.4930454501       26.9316842046
  H        -1.6882868759        8.6371662614       28.6248616454
  C        -2.5395893034       10.0956899208       27.3131269947
  H        -1.1887192530       11.2315024131       30.7575181596
  C        -1.3337086010       14.0348845385       31.3309330618
  H         5.9367486611       14.3230504057       19.9002402547
  H         5.5586265907       12.6020938829       20.4257708819
  C         7.6398247055       13.2760995476       19.8011749292
  C         3.5807226674        7.5616690365       15.7134574362
  H         2.7362297409       10.5356412021       28.2717302691
  H         1.8551252229       10.7660675448       29.8373582152
  C         3.2272174501        9.1336517704       29.9196404176
  H        -2.2870105941       10.5855922158       26.3716067586
  H        -2.8116236346       10.8935694128       28.0979228192
  C        -3.8474596473        9.3363227924       27.0927954236
  C        -1.4823912350       15.4510780859       31.4533784667
  C        -1.6514144495       13.2957050887       32.5363323689
  H         8.4205848299       13.9216094954       20.2211562743
  H         8.0340716461       12.1780944896       19.9533902938
  C         7.5703053042       13.5455964933       18.3270112884
  H         3.3157639480        6.4685052533       15.7297487923
  C         3.9776407309        7.9393450455       14.4608149983
  H         3.4058894295        8.1963373360       29.4028596979
  H         2.8311955811        8.9235380588       30.8864583797
  C         4.5698720589        9.8266714338       30.2466029641
  H        -3.6309747788        8.5496248984       26.3782419853
  H        -4.1652673202        8.8504313539       28.0175980502
  C        -5.0541950825       10.2380416114       26.7068093451
  N        -1.2186127006       16.3606021537       30.4430242476
  C        -1.7899136105       16.1001773088       32.6139884686
  C        -1.9558096252       13.8813486105       33.7131707412
  H        -1.4564826207       12.2235775932       32.5465090134
  H         7.7622392647       14.5780057980       18.1521662186
  H         8.4330423223       12.9779798483       17.9003071541
  H         6.6047340534       13.2138095055       17.9369756017
  S         4.2503076076        9.6056472837       13.9822672781
  C         4.0426506109        6.8928075312       13.3730579010
  H         4.9037766150       10.6611080841       29.7076430607
  H         4.6305470835       10.0486992380       31.3002915126
  C         5.7918717128        8.9505082113       29.9568472299
  H        -4.6731540828       11.1969513993       26.3687723027
  H        -5.7219476643       10.5383842280       27.5403658737
  C        -5.9467456389        9.6865669970       25.6378377211
  S        -1.3216440556       17.8730692557       30.9819562511
  N        -1.6288740273       17.5230792029       32.5120495042
  C        -2.0448866939       15.4048589997       33.8101965142
  H        -2.1205220931       13.2139047787       34.5795541804
  C         4.3513911677        8.8747650160       12.3095847293
  N         4.3734701642        7.5377344956       12.2317976999
  O         3.8565188162        5.6798704656       13.5049399790
  H         6.6569683913        9.6311405972       29.9130458731
  H         5.7018965125        8.4383173577       29.0057254225
  C         5.9479529829        7.9617905577       31.0988543687
  H        -5.2917612074        9.2771829015       24.7973947562
  H        -6.5106037257        8.8441338063       25.9787088508
  C        -6.9361129825       10.7034272696       24.9666223771
  C        -2.3914099665       16.1165964010       34.9792703434
  S         4.6375397409        9.7628091346       10.7865139188
  C         4.3847874899        6.7493362127       11.0106162856
  H         6.6846729894        8.2773340719       31.7694632960
  H         4.9906579784        7.7987257885       31.5956207079
  C         6.3246715379        6.5123140405       30.6444927378
  H        -6.4682550028       10.9300395882       24.0235090932
  H        -7.0999081703       11.6063905739       25.4627949203
  C        -8.2840358183       10.0776291448       24.7696221007
  H        -2.2262629659       17.1759562438       34.9807878200
  C        -2.9568242454       15.7608524005       36.1794820686
  H         5.1991496484        7.1362099371       10.3896136750
  H         4.7396134748        5.7705025682       11.3171655214
  C         3.0387893700        6.8340537369       10.3452432038
  H         7.2850728612        6.5610182325       30.0552089722
  H         5.6403358079        6.1714390383       29.8426579181
  C         6.5353803198        5.6938830757       31.8207817641
  H        -8.8030163431       10.5907513741       23.8228786782
  H        -8.1092487402        9.0631415044       24.5874471379
  C        -9.2716676371       10.2502443361       25.9688728289
  S        -3.4093359383       14.1668063064       36.6220643606
  C        -3.2767631217       16.7478965376       37.2074674747
  H         2.7953435524        7.7599518881        9.8203700453
  H         2.9469762669        5.9585799429        9.6237681852
  H         2.2313349931        6.7433730881       11.1072977732
  H         6.4647902087        4.6126624351       31.6063407981
  H         5.7816189779        5.8552856876       32.5531240505
  H         7.4670460034        5.9278266016       32.2108272461
  H       -10.0352768051       11.0150676990       25.7614620163
  H        -8.7933365853       10.5978894713       26.8790204763
  H        -9.8357530327        9.3673594957       26.2902030688
  C        -3.8981623174       14.8291390033       38.2011237110
  N        -3.8288063215       16.2253485365       38.2599585760
  O        -2.9000158215       17.9290460326       37.1056728050
  S        -4.3076626892       13.8624758694       39.6410270025
  C        -4.2144479872       17.0293078610       39.4474820684
  H        -4.3352291070       18.0450341481       39.1303001732
  H        -5.2147067325       16.7489274659       39.8466986329
  C        -3.1770325243       17.0199024839       40.5773186309
  H        -2.1855627848       16.9219700897       40.1953299618
  H        -3.2337347472       17.9223800250       41.1792583953
  H        -3.2912202064       16.1464500565       41.1589071315
  H         7.6312679548       11.8396369953        3.3817097829
  C         8.2112672359       10.9600587803        3.3611118402
  H         7.5137937898       10.1087548146        3.3117004181
  C         8.9293755216       10.8902400057        4.7543750798
  C         9.0834185488       10.9639348508        2.1354718503
  C         7.8784781703       11.2142165480        5.8694819767
  H         9.3900284428        9.9145902621        4.8616310301
  H         9.7526379323       11.5977490964        4.8673534313
  H         9.7417284417       10.1289096455        2.1547791726
  H         9.7694017454       11.8696273025        2.3024733073
  H         8.4560851574       11.0156265224        1.2640545052
  C         7.1593828712        9.9649279501        6.2809447703
  H         8.4988712940       11.5608503670        6.6827742092
  H         7.2161628121       12.0289018475        5.5598307113
  C         6.3853768352       10.1166954729        7.5720234941
  H         7.9537749930        9.2609018495        6.5363338368
  H         6.6472255716        9.5281418541        5.4671441752
  C         5.0482678147       10.7557616557        7.3273897949
  H         6.9295304508       10.7522288707        8.2125073103
  H         6.1752287731        9.1622116956        8.0535038021
  C         3.9663744869        9.8473428787        6.7475160299
  H         4.6536388756       11.2566864775        8.2285299162
  H         5.3465319647       11.5187258738        6.6495824689
  C         2.5962561674       10.6223125199        6.5243552136
  H         3.8093274361        8.9828848730        7.4439876870
  H         4.2590926211        9.5352649575        5.7715499695
  C         2.9066450966       11.9583074795        5.8309795251
  C         2.1329838147       11.2416839672        7.7618725381
  C         1.5020099360        9.8351973613        5.6571916419
  C         2.7883816008       13.0239622271        6.7081302119
  C         3.3935741213       12.4342745367        4.5877631369
  C         2.2803000091       12.5731159872        7.9101863416
  C         1.7573439233       10.5791465435        8.9479278307
  H         1.8552651934        9.7512516352        4.6333916550
  H         1.3412161674        8.8711567272        6.0065716851
  C         0.2381289414       10.6920079944        5.7210443926
  S         3.2779812136       14.5459614585        6.0867295831
  C         3.6825046390       13.7336302606        4.6356233132
  H         3.5495412499       11.6462378698        3.8664183372
  C         2.0075525662       13.1360787706        9.1056041353
  H         1.6997108920        9.4823799054        8.9130907824
  C         1.5683277711       11.2132890037       10.1043843070
  H         0.4169342400       11.7667658018        5.5232418626
  H        -0.2834103855       10.7286758946        6.6144357368
  C        -0.9016045802       10.1921819287        4.7564655025
  C         4.2706997936       14.4720844099        3.4552164016
  C         1.6298139604       12.5113603365       10.2281218891
  H         2.1127989744       14.1656261024        9.0029057678
  C         1.3477447953       10.7785068635       11.4102644046
  H        -1.8871469546       10.4936387292        4.9885361740
  H        -0.8857551831        9.0979044243        4.9136147007
  C        -0.4807712000       10.5149864221        3.3222238901
  C         4.1036648458       15.9079243083        3.2824296985
  C         4.7728466523       13.6568321004        2.3049609584
  C         1.4928912244       13.2013974649       11.5471516360
  C         1.2100890519       11.8304524236       12.2946987191
  S         0.9772658105        9.2009812339       12.1421476879
  H         0.6069007076       10.3672465975        3.1661647890
  H        -0.5940380670       11.5760219789        3.1186957122
  C        -1.2016832217        9.7730725122        2.2640321732
  N         3.7364957990       16.8507044983        4.2377301399
  C         4.4947706678       16.5257497097        2.0968723566
  C         5.1622701843       14.3459397958        1.1555068354
  H         5.1242350773       12.6007386734        2.4485228492
  C         0.3117635894       14.3171733766       11.5191496539
  C         2.9216188893       13.6897878687       11.9178704984
  C         0.8837331363       11.3622966996       13.5868237940
  C         0.6846478545       10.0196735743       13.6418656086
  H        -1.8848547006        9.0601097143        2.7260846381
  H        -1.8378254369       10.4325144898        1.7652205712
  C        -0.2448254872        9.0040106382        1.3490117760
  S         3.8140950778       18.4084858834        3.5948784606
  N         4.4452963995       17.9216064313        2.1792086108
  C         4.9004321315       15.8170433009        0.9280157139
  H         5.6104132300       13.7482574592        0.3782610338
  H         0.5920671849       15.1142437153       10.8717619644
  H         0.1597278199       14.7276992162       12.5320197472
  C        -1.0237224132       13.6101654106       11.2295943899
  H         3.6672232029       13.0221277962       11.5929010907
  H         3.1129942236       14.5714975650       11.4055054788
  C         3.1508707237       13.9199924594       13.4142049781
  H         1.0492190474       12.0678857761       14.3925716052
  C         0.5092552447        9.2793208759       14.9508056006
  H        -0.8404315311        8.2358403634        0.9343653311
  H         0.5490229036        8.4541174288        1.8709149577
  C         0.6125186183        9.8559100831        0.3345614734
  C         5.0403608586       16.6000784148       -0.3318005186
  H        -0.8520684210       12.9461666995       10.3743297109
  H        -1.3265020712       13.0329312516       12.0665823983
  C        -2.2146330463       14.4066904166       10.8301323651
  H         2.9897116672       13.0417815641       14.0644028052
  H         2.4436604521       14.6817022363       13.7941901077
  C         4.5422173645       14.5501250349       13.6742041637
  C         0.4379138724        7.8976530574       15.1445472546
  C         0.2705081987       10.0444813528       16.2273291223
  H         1.0482553984       10.6931082948        0.9220161691
  H         1.5159300953        9.2849864845        0.0966076477
  C        -0.1869070552       10.1473016668       -0.9786578971
  H         4.9738463744       17.6626203741       -0.2066662639
  C         5.2403550989       16.2201218880       -1.6843020684
  H        -2.0085584935       14.9418993030        9.9370561285
  H        -2.4192003204       15.1486510947       11.6026017904
  C        -3.3480537067       13.5325537128       10.6335432582
  H         4.8969164444       15.1723487870       12.8027719267
  H         4.4388200253       15.1784756345       14.5929226509
  C         5.5642188708       13.4836831023       14.0325373181
  N         0.5872807183        6.9525737759       14.1272245331
  C         0.0948768341        7.3231831939       16.3476861021
  C        -0.0966761731        9.4667122009       17.4526266042
  H         0.3791714978       11.1444336292       16.2158585509
  H        -1.2493651164       10.2546608406       -0.8087164407
  H        -0.0390464594        9.4350066445       -1.8076015944
  H         0.2116840178       11.0975672925       -1.3718059789
  S         5.5803992020       14.6575663770       -2.2979118182
  C         5.2501556155       17.3365970012       -2.7177280698
  H        -3.0409414120       12.6566043280       10.0926461972
  H        -3.7975792940       13.1377609512       11.5455950879
  C        -4.4228483674       14.3009367597        9.8381289640
  H         5.6351014597       12.5341094418       13.4428146480
  H         5.2798491295       13.1082387800       15.0366682572
  C         6.9766581494       14.1314179300       14.1152059373
  S         0.6070141523        5.4940713452       14.8254580425
  N         0.1201627134        5.9181765623       16.3169455442
  C        -0.2370117187        8.0488912460       17.5172497371
  H        -0.2749028701       10.1004179833       18.3110193276
  C         5.6621758137       15.4239598931       -3.8739422032
  N         5.5026745958       16.7851301676       -3.9269637483
  O         5.0801703252       18.5064769696       -2.5152094109
  H        -4.9022779835       15.0718545888       10.4319681297
  H        -3.9314911438       14.9723307093        9.0917426243
  C        -5.3167706600       13.2036218152        9.2000231581
  H         7.6297686532       13.3623854020       14.4812887334
  H         7.3816601017       14.3828513315       13.1447475770
  C         7.0210446489       15.5078891313       14.8301954266
  C        -0.5688231070        7.3595216366       18.7270823060
  S         6.0312897284       14.5730039863       -5.3544341863
  C         5.3734087028       17.4943410012       -5.2198355803
  H        -4.7800667188       12.6135621399        8.4252706274
  H        -5.7256954251       12.5743570973        9.9461759294
  C        -6.4883991189       13.8734669848        8.5022665705
  H         6.8666172601       15.3230769294       15.9091740253
  H         6.3048021854       16.2040421737       14.4914720215
  C         8.3821583073       16.2426542743       14.6602303269
  H        -0.3658596416        6.2807219973       18.6773041749
  C        -1.0061774718        7.7525809534       19.9735199883
  H         5.8392526539       16.9196842248       -6.0812337332
  H         5.9457047274       18.4741701128       -5.2132907110
  C         3.8562875327       17.6425823427       -5.5622551658
  H        -6.9175225934       13.2228657192        7.6341736394
  H        -6.1332736894       14.7552390982        7.9299256958
  C        -7.6707996346       14.0532357683        9.4118035000
  H         8.8570711913       16.4670956944       15.6184525307
  H         9.2299415559       15.6728666968       14.1431398177
  C         8.2666054030       17.4370813182       13.8191884620
  S        -1.7098954336        9.2823481106       20.4075447265
  C        -1.1486203666        6.7691861432       21.0437242989
  H         3.3794814821       18.5036002589       -5.2292768678
  H         3.3282914922       16.7837227335       -5.1066924827
  H         3.7735249051       17.4452421157       -6.6079574977
  H        -8.4324246165       14.5872791531        8.8570826119
  H        -8.0682962907       13.1437146939        9.8621266139
  H        -7.3289370213       14.6766811857       10.2101362334
  H         7.2955889570       17.8991055719       13.8968296495
  H         9.0179523059       18.2231465878       13.8970289785
  H         8.4704628184       17.0689119294       12.7669425524
  C        -1.8885687327        8.7344496201       22.0255253634
  N        -1.6967506050        7.3819007570       22.0914038370
  O        -0.6027483877        5.6481898388       21.0119383297
  S        -2.5766559023        9.6048595996       23.3916103196
  C        -1.5909546468        6.7735455722       23.3855905808
  H        -2.0367521791        5.7790889174       23.2421345015
  H        -2.2808713092        7.2212873977       24.1069049663
  C        -0.2146858709        6.8651153361       24.0253130280
  H        -0.1132187318        6.7979807776       25.1172257811
  H         0.2793111528        7.7795922522       23.8064944539
  H         0.3904347093        6.0274213152       23.7192224676
