352
i =
  H        -3.4176390284       12.8666782158       16.5051441698
  C        -2.5753938215       13.5687889589       16.7575043622
  H        -1.6611955635       13.0601371039       17.1053626148
  C        -2.8936104323       14.6597424297       17.7753248498
  C        -2.2013532631       14.2348030380       15.4505610026
  C        -3.4286295228       14.0984491702       19.0971444575
  H        -2.0363015810       15.2690872779       18.0052631068
  H        -3.7010120806       15.2851644466       17.4535272512
  H        -1.1225500277       14.3905395144       15.4152812503
  H        -2.3188457662       13.6183417720       14.5992831037
  H        -2.6243539137       15.1792200054       15.2144442382
  C        -2.2866380210       13.7755416695       20.0882542491
  H        -3.9378255260       13.2126952326       18.7797043226
  H        -4.2065644799       14.7374614804       19.5817448481
  C        -2.7773813955       13.3745923330       21.5122197078
  H        -1.6459948356       13.0349624133       19.6275736143
  H        -1.6421895846       14.7181235539       20.1431299485
  C        -1.6780721285       12.7161020072       22.4057257055
  H        -3.6882770333       12.7684418967       21.4014166075
  H        -3.1324309950       14.2488711482       22.0130164540
  C        -0.4961778018       13.6656651603       22.6300083784
  H        -2.1403717174       12.3520649470       23.3661830126
  H        -1.3045451208       11.7210764043       21.9527416730
  C         0.7181041739       12.9180900841       23.3156034033
  H        -0.0992135239       14.0102953642       21.7299250003
  H        -0.9867170611       14.5092855845       23.2587271890
  C         1.1426581755       11.6414183765       22.5842806988
  C         0.2786580002       12.1562056022       24.5103035361
  C         1.9863639293       13.8992323095       23.5431907803
  C         0.9544551417       10.4985950234       23.3789726310
  C         1.6850757233       11.3128420843       21.3814999830
  C         0.4686635973       10.8498631048       24.6173693489
  C        -0.2153092341       12.7602910523       25.6778965970
  H         2.2543888992       14.3176836594       22.5629417196
  H         1.6848480990       14.7069840297       24.3047209172
  C         3.2153759783       13.2265878965       24.0712600600
  S         1.5089667705        9.0648420550       22.6821668993
  C         1.8609306828        9.9841786777       21.2657828595
  H         1.8470496690       12.1032286825       20.6866698036
  C         0.0540910686       10.2117041333       25.8140716505
  H        -0.2984544612       13.8607018464       25.7024718276
  C        -0.4919203521       12.1758512811       26.8845919143
  H         3.6690188901       12.7063576581       23.2747013205
  H         3.0353756558       12.6158466505       24.8784676657
  C         4.3145615812       14.2469389901       24.4441357045
  C         2.3416570716        9.3136027693       19.9597563507
  C        -0.4081729760       10.8658900030       26.9971779591
  H         0.1763110103        9.1174056007       25.7588132604
  C        -0.8859022782       12.5711121325       28.0797294064
  H         4.9220731227       13.9766146714       25.3247022417
  H         3.7060796055       15.1301085853       24.8221712624
  C         5.2186704728       14.7399134535       23.2650082063
  C         2.4731103849        7.9136171882       19.7466225913
  C         2.7408633996       10.2328820130       18.8562731025
  C        -0.8387762595       10.1576149070       28.2134120868
  C        -1.0469094816       11.4755031736       28.9028163254
  S        -1.0968773088       14.0866723119       28.7998471935
  H         6.0642436236       15.3813982291       23.6354648301
  H         4.6040634514       15.3897611299       22.7271984208
  C         5.9332396507       13.6632432446       22.3607997463
  N         2.2171478380        6.8684221443       20.6526404050
  C         2.7906351080        7.4429657904       18.4695927607
  C         3.1204605946        9.7356373217       17.6476880180
  H         2.9832086275       11.1901913422       19.1522281084
  C         0.2625136033        9.2029983557       28.6908897157
  C        -2.1303021118        9.3511919443       28.0168771667
  C        -1.3907505471       11.8954862978       30.2172330917
  C        -1.3615782364       13.2553972832       30.3365721557
  H         6.9037797165       14.0755085357       22.1900009760
  H         6.0981061164       12.7877374881       23.0114609150
  C         5.1210022439       13.2912185435       21.1701703982
  S         2.2109227971        5.4792601199       19.7796610904
  N         2.6984758699        6.0827472974       18.3430524981
  C         3.0740444151        8.2943272794       17.3031095931
  H         3.6642080221       10.5000398040       17.0077725438
  H         0.4738341984        8.5052774833       27.8889874021
  H        -0.1442369524        8.5553705671       29.4545546979
  C         1.5067631443       10.0087266610       29.0986161686
  H        -1.9248829367        8.4870736120       27.4544620474
  H        -2.3368122240        9.0315967481       29.0812071529
  C        -3.3314548567       10.1718956799       27.3962734374
  H        -1.6135976132       11.2035585476       31.0478374254
  C        -1.5595359986       14.1055091260       31.5614160643
  H         4.0695844517       13.5164825386       21.3491861333
  H         5.2254974468       12.1823084550       20.9661634459
  C         5.6344072414       14.1260392540       19.9851149382
  C         3.3294790553        7.6792042307       16.0291563891
  H         1.7047480527       10.7173773045       28.2737366106
  H         1.4053053345       10.6952183005       29.9067893091
  C         2.7219805098        9.0768414387       29.1882816996
  H        -3.0376679320       10.5074256808       26.4103171656
  H        -3.6179910413       11.0232757790       27.9724060831
  C        -4.5062759108        9.1199243901       27.1662042847
  C        -1.6994026454       15.5282743972       31.5936181389
  C        -1.7272989912       13.4519743587       32.8994051118
  H         4.7900441679       13.9844040900       19.3153633271
  H         5.5970294612       15.1256826497       20.3721586423
  C         6.9800918141       13.5824924580       19.3993599827
  H         3.2523190822        6.6206602194       15.9218810672
  C         3.7787572102        8.2413401127       14.8706761626
  H         2.8116667800        8.4613331974       28.3486199584
  H         2.4012468126        8.3251041702       29.9427805477
  C         4.0441177727        9.6860111195       29.7213084497
  H        -4.1096086906        8.5900044262       26.3708184395
  H        -4.6106915419        8.4680114550       27.9744783277
  C        -5.8257644444        9.7734664789       26.9079558052
  N        -1.5338717056       16.3509361389       30.5191508968
  C        -1.9499585434       16.2410829228       32.7506847223
  C        -2.0314427547       14.1458436399       34.0098451525
  H        -1.7475224285       12.3240721286       33.0224795802
  H         7.1118985667       13.7906307598       18.3227383475
  H         7.6852200126       14.1353813513       20.0368264036
  H         7.1166539119       12.5264871340       19.6103479113
  S         4.0201827565        9.8932419740       14.4454253321
  C         3.9371546816        7.3137095849       13.6993837568
  H         4.3244016625       10.4000394204       28.9797084876
  H         3.7633515358       10.2466068940       30.6315023865
  C         5.1636791758        8.7102880504       29.9847008519
  H        -6.0265474952       10.6797835411       27.4481851447
  H        -6.5455957925        9.0411001963       27.3546629335
  C        -6.0680720463        9.9421411250       25.4289931003
  S        -1.5732031094       17.8986779502       31.0390483118
  N        -2.0485592609       17.5904766045       32.5701114863
  C        -2.1860737813       15.6145668103       33.9921084230
  H        -2.1801994864       13.5712914292       34.9635336747
  C         4.2348936721        9.3580357559       12.7703682773
  N         4.1321461346        8.0475112832       12.5490456113
  O         3.8818874628        6.1111749303       13.6859638097
  H         6.0674873913        9.3295799150       30.0737076522
  H         5.3490979424        7.9521526462       29.1794298363
  C         4.9099838269        7.9384291877       31.2614681554
  H        -5.3069025923       10.5655854408       25.0357543479
  H        -5.9532966578        8.9969231573       24.9258089516
  C        -7.4021939626       10.7301400536       25.1687091892
  C        -2.5232670561       16.4314743774       35.0946752680
  S         4.7185594707       10.3741154254       11.3481212063
  C         4.2056585088        7.4433992746       11.2017171632
  H         5.5448418355        8.3649473306       31.9852183808
  H         3.9106035105        7.9405468797       31.6891036074
  C         5.3209055253        6.4566994122       31.0626605451
  H        -7.1147029715       11.3630303887       24.3211112697
  H        -7.6844343092       11.4411883572       25.9581940584
  C        -8.6863378813        9.8914531142       24.8843373991
  H        -2.3804712035       17.5350296765       35.0235348084
  C        -3.1466512407       16.1503605624       36.2239964292
  H         4.5939052167        8.1830855570       10.4705743019
  H         5.0013489483        6.6912076494       11.2597674100
  C         2.8596520349        6.8773484804       10.7256107995
  H         4.8923102236        6.1080506812       30.0784506137
  H         4.6929798108        5.8272302342       31.8082165768
  C         6.7362943987        6.1437842672       31.3146143449
  H        -9.3787439209       10.6145997727       24.3218189130
  H        -8.5459626516        8.9606227445       24.2976609452
  C        -9.4784089969        9.6279887244       26.2733961338
  S        -3.6973584502       14.6086342073       36.7780155649
  C        -3.2027224693       17.2123806845       37.2768620180
  H         2.2128122451        6.6129038021       11.4829841524
  H         2.1925644539        7.5747913324       10.1588586079
  H         3.0273165365        6.0624414651       10.0244264163
  H         6.9415925778        6.4582498127       32.3205751133
  H         7.2528786975        6.7381004152       30.5811903166
  H         7.0059178879        5.0782320805       31.1573831335
  H        -8.9843721080        8.7748851757       26.7489969262
  H       -10.5351121645        9.3857715784       26.0386374983
  H        -9.4105533770       10.5191409236       26.8797789345
  C        -3.9731785097       15.3427257499       38.3461336252
  N        -3.7376887450       16.6972583146       38.3894801576
  O        -2.7962197036       18.4283578452       37.0964566447
  S        -4.5017377167       14.5588804456       39.9453877484
  C        -3.7547432440       17.5027360213       39.6066615162
  H        -4.0688331506       18.6184026915       39.4912639144
  H        -4.4845195692       17.0407604147       40.2532958525
  C        -2.4245842388       17.3935592200       40.3510675687
  H        -2.5537543679       17.2307504121       41.4297958508
  H        -1.6995915849       16.6242760322       39.9105626045
  H        -1.9096969333       18.3513821461       40.5237470579
  H         7.1994854261       11.1426216057        3.6636215084
  C         8.0046566370       10.3727490130        3.6598563617
  H         7.4244721749        9.3522220487        3.7797710563
  C         8.9393488679       10.6142089338        4.8638563165
  C         8.6231796610       10.4367522857        2.2538194269
  C         7.9672685268       10.9191736265        6.0698298665
  H         9.7438460056        9.8394545672        4.9098686182
  H         9.3966830519       11.5709881933        4.7315383413
  H         9.6122038242       10.9311033487        2.1108754151
  H         7.8652045450       10.8727558494        1.6304400483
  H         8.7944681568        9.4467399348        1.7912615870
  C         7.3669155543        9.6032217066        6.6006492258
  H         8.4876774102       11.4616137411        6.8668869672
  H         7.1212663169       11.6328247328        5.7884525558
  C         6.6005973087        9.8213489866        7.9128677287
  H         8.1775540744        8.8822345353        6.7985794545
  H         6.7897225984        9.2055512485        5.7783438431
  C         5.3851079801       10.7048033649        7.7062157243
  H         7.1832724783       10.2842736202        8.6939142464
  H         6.2718190590        8.8396207019        8.2888926440
  C         4.1992557210        9.9743476938        7.1627124879
  H         4.9898879962       10.9955624523        8.7012938980
  H         5.5107878373       11.6595535327        7.1978014071
  C         2.8631174782       10.7570955070        7.0525727045
  H         3.9934924892        9.0505073522        7.8018859638
  H         4.3732251040        9.5923087980        6.1250893884
  C         3.1399237591       12.0673795854        6.3453492093
  C         2.4348899213       11.4610190071        8.2868371662
  C         1.7932793662        9.9439824233        6.2487366311
  C         2.9104647236       13.2096827333        7.1221220545
  C         3.6463041332       12.4314573988        5.0959511541
  C         2.4841338220       12.8387169808        8.3443839453
  C         1.9426987501       10.9149946299        9.4683837044
  H         2.2135594030        9.7878686520        5.2111073737
  H         1.5717584540        9.0060257115        6.7537308171
  C         0.4737877679       10.7245450324        6.1539297090
  S         3.1990806929       14.6920220199        6.3819235388
  C         3.7041137525       13.7928393339        4.8796875642
  H         3.7290263992       11.6200785489        4.3403396023
  C         1.9946580570       13.5094176509        9.4114717852
  H         1.8891047277        9.8336424044        9.4636434045
  C         1.5854181767       11.6352719331       10.5833538938
  H         0.6855186394       11.7704238763        5.8653492307
  H         0.0828195907       10.7320546257        7.1581038746
  C        -0.5012678542       10.0138819640        5.2563786071
  C         4.0127018526       14.4400049651        3.5303332572
  C         1.6372783784       12.9706018879       10.6808709780
  H         2.0694256130       14.5619571845        9.2720831521
  C         1.2539811864       11.2731606561       11.8738976214
  H        -1.4602737137       10.4219188291        5.5223178161
  H        -0.4490254372        8.9689734394        5.6911533698
  C        -0.2638946483       10.0065474785        3.8147237625
  C         4.1794778458       15.8127391790        3.2236611742
  C         4.3904558902       13.5474082977        2.4263277077
  C         1.2165388475       13.7543311120       11.9247346434
  C         0.9705836956       12.3946033614       12.6667272979
  S         1.0311774820        9.7437239909       12.6906966445
  H         0.4773159296        9.2277238024        3.4444037119
  H         0.3643540758       10.9108363358        3.5879942687
  C        -1.5183665455        9.9962699066        2.8969030232
  N         3.9166764139       16.7303549801        4.1496848411
  C         4.4681159078       16.3271550420        1.9813250616
  C         4.6485245760       14.0247001195        1.1494594590
  H         4.5155231262       12.4809317845        2.6133725104
  C        -0.1435289467       14.4859979613       11.6352225544
  C         2.3414429297       14.5623590865       12.5964898248
  C         0.5058028316       11.9580583815       13.9784223487
  C         0.5312999283       10.5751079185       14.1415646077
  H        -2.3898607482        9.4637918402        3.2869658335
  H        -1.8567805581       10.9804549004        2.5917374294
  C        -1.2560849482        9.2090724619        1.5737763924
  S         4.0816188221       18.2117518705        3.4602790970
  N         4.4465042958       17.7305313981        1.9651178542
  C         4.6949457584       15.5013001003        0.8267195991
  H         4.9081657975       13.3445694459        0.4179984503
  H         0.0749783553       15.3757084690       10.9755053295
  H        -0.3973695273       14.9112851590       12.6349035246
  C        -1.2885389332       13.6236185582       11.0951295699
  H         2.8692910817       15.0143003595       11.7286984979
  H         1.7734185627       15.3141390397       13.0357341436
  C         3.3866078487       13.7933424694       13.5107577551
  H         0.3132169234       12.7004884715       14.6921532096
  C         0.2321055830        9.7320182461       15.3606573933
  H        -2.1600547975        8.7919348166        1.1390799649
  H        -0.7337047544        8.2808104782        1.8511740616
  C        -0.3649778238        9.9600789760        0.5079096225
  C         4.9705392425       16.1464348814       -0.3910142891
  H        -1.0122980411       13.1502052221       10.2111992702
  H        -1.4407334882       12.8153036485       11.8126221162
  C        -2.4697512764       14.4405805615       10.5818227688
  H         3.7267876123       12.9408285506       12.9846370330
  H         2.9135387970       13.5733617010       14.4454151401
  C         4.7221690378       14.4678883787       13.7633158638
  C         0.1101409479        8.3052531870       15.4621339117
  C        -0.1514647899       10.3854680524       16.6123600387
  H         0.4457613315       10.5309465075        0.9660896750
  H         0.3153261169        9.3349218432        0.0121624314
  C        -1.0849229675       10.6828688707       -0.6460682343
  H         4.9587004847       17.2332632314       -0.2835189882
  C         5.2917952221       15.6897219060       -1.6310808855
  H        -2.3048063239       15.0729667315        9.7508384984
  H        -3.0034425597       15.0264484634       11.3226750597
  C        -3.5581454150       13.4485151505        9.9818464086
  H         5.2236485216       14.4610657334       12.7816616450
  H         4.5381019621       15.4724341878       14.1809369494
  C         5.7264124860       13.6959948728       14.6451254755
  N         0.4037275823        7.3537836998       14.4688654939
  C        -0.1304815852        7.5848772971       16.6458215954
  C        -0.4723231414        9.7611753123       17.7608918448
  H         0.0096304946       11.3978562518       16.6780087113
  H        -0.4581909545       11.4903384244       -0.9129476393
  H        -2.0563264778       11.0740722724       -0.3090632722
  H        -1.3418510548       10.0442739450       -1.5093351458
  S         5.5734066238       14.0523143577       -2.0691372006
  C         5.4359418264       16.6323906770       -2.7500685580
  H        -3.1920643895       13.1815396038        9.0229380471
  H        -3.7317170257       12.5581779601       10.6156419363
  C        -4.8275026654       14.2668004427        9.7422738935
  H         5.6954811062       12.6406460670       14.4413894552
  H         5.3425216778       13.8307188088       15.6212220544
  C         7.1834791972       14.1396212133       14.6255956778
  S         0.6349934387        5.8379832465       15.0158021513
  N         0.1471248197        6.2503441970       16.5107125472
  C        -0.4342129012        8.2594840312       17.8692628638
  H        -0.7280736433       10.3900383328       18.5712321913
  C         5.8375336210       14.6489193596       -3.7411172586
  N         5.7713239262       16.0247664679       -3.8855640405
  O         5.2092283155       17.8454806384       -2.5949106780
  H        -5.3043281572       14.5028069266       10.7221452332
  H        -4.6229638144       15.1983300438        9.2375170758
  C        -5.8075271036       13.4457133760        8.9419821340
  H         7.8632160914       13.4908582519       15.1726456796
  H         7.5572789324       13.9830789172       13.6707128211
  C         7.4647518866       15.5640171836       15.2289989318
  C        -0.7304479780        7.4133222189       19.0458985558
  S         6.3288253847       13.6753481807       -5.1076708571
  C         5.8124274502       16.6932709786       -5.1679822828
  H        -5.4040782180       13.1824560322        7.9074906938
  H        -6.2266210335       12.5245020358        9.3951495388
  C        -7.1498608683       14.1833825835        8.5462550608
  H         7.7050395884       15.3640952750       16.2933123122
  H         6.5458169022       16.1219023824       15.2644338641
  C         8.4030236964       16.4528557078       14.5347658938
  H        -0.6487713606        6.3493308699       18.8345538800
  C        -1.1406294342        7.7286756675       20.3170188702
  H         6.6142669903       16.3145736173       -5.8445530311
  H         6.0704349273       17.6919369228       -5.0664148427
  C         4.5097493574       16.7079320984       -5.9120299793
  H        -7.6373479852       13.6860671423        7.6696813159
  H        -6.8431829250       15.2222173915        8.3481669642
  C        -8.2866671317       14.1899674481        9.6008258951
  H         8.7596964780       17.2981440153       15.2084395975
  H         9.3321877904       16.0639697721       14.0584995028
  C         7.6820798875       17.1018182151       13.3751437499
  S        -1.6483968690        9.3398117790       20.9813714315
  C        -1.3760845793        6.5964424650       21.2450830953
  H         3.7729035682       16.1677950695       -5.3366650555
  H         4.4667315407       16.3046435949       -6.9752886326
  H         4.0165838878       17.6478416510       -6.1444787177
  H        -8.6567468700       13.2163772998        9.7805107449
  H        -8.0082388501       14.7725264205       10.5090644735
  H        -9.1784388469       14.7284752248        9.1090371860
  H         7.0668455190       16.3926233531       12.7359663484
  H         6.9186970643       17.7691234234       13.8024851266
  H         8.5376661646       17.5311441065       12.7776335948
  C        -2.1015971309        8.3796182872       22.4086407185
  N        -1.9506971386        7.0348897001       22.3571087584
  O        -0.8914039067        5.4736703455       21.1234037008
  S        -2.8868375649        9.1552290775       23.8421676734
  C        -2.1428352323        6.1505419608       23.5193541313
  H        -2.2661716675        5.0441716452       23.3094382762
  H        -3.0008708242        6.4662971700       24.0518779380
  C        -0.9073523771        6.2683498332       24.3629750542
  H         0.0265448644        6.1447109282       23.7889652180
  H        -0.9212676903        5.4831512083       25.1833066800
  H        -0.8928472131        7.2480825857       24.7773508497
