352
i =
  H        -2.2637562343       15.1312863902       16.7684244510
  C        -2.8640823662       14.3780202820       17.2389328845
  H        -3.5354812673       14.9237359501       17.9412972863
  C        -1.9753372061       13.2191474180       17.7585749154
  C        -3.6154729087       13.8034344859       16.0381814277
  C        -1.6693058578       13.3534765343       19.2506934583
  H        -2.3041866391       12.2368754388       17.5125247285
  H        -1.0191231616       13.3600821022       17.2084823967
  H        -4.4814436118       13.1685976057       16.1967312654
  H        -3.7463317015       14.4993378136       15.2171294601
  H        -2.9590252560       13.0382115488       15.6021185723
  C        -2.8526631603       13.0317615997       20.1615266706
  H        -1.3629826192       14.4005416544       19.5054799204
  H        -0.7623296878       12.7597211805       19.4948064759
  C        -2.7393873214       13.6946927896       21.5231902559
  H        -3.7807395317       13.3426196586       19.5761047258
  H        -2.8355705638       11.9624520644       20.1568782859
  C        -1.6497460970       13.0615705205       22.3886954633
  H        -3.6936589781       13.6470874095       21.9790179314
  H        -2.5516499981       14.7508907923       21.4178070182
  C        -0.4135012834       13.9584997774       22.5336060663
  H        -2.1070074806       12.8579664750       23.3576962971
  H        -1.4055323648       12.0592712826       21.9149158212
  C         0.7649895732       13.1901117332       23.2175600063
  H        -0.0793480652       14.4287172415       21.5993033164
  H        -0.7560891889       14.8137096089       23.1185255226
  C         1.0963673163       11.8706565659       22.4539603117
  C         0.3130815213       12.3935336887       24.4132393553
  C         2.0357248525       13.9891384600       23.5663513418
  C         0.8390010924       10.7445666003       23.2344071275
  C         1.4788164832       11.4819598953       21.1766282288
  C         0.3731457225       11.0682020777       24.4617824913
  C        -0.1785631726       12.9597011660       25.6313765205
  H         2.2507223198       14.5143072067       22.6564366490
  H         1.7665889624       14.7159577479       24.3319113285
  C         3.1592781272       13.1671085390       23.9920134018
  S         1.2151737561        9.3248412251       22.4944024664
  C         1.6827607596       10.1238391870       21.0612246457
  H         1.4838108660       12.3585561406       20.4579109416
  C        -0.0438717915       10.3575474827       25.6005900445
  H        -0.1808586110       14.0411017495       25.6604530753
  C        -0.5505314158       12.2582997862       26.7466025061
  H         3.4839629877       12.4697016542       23.2644727057
  H         2.8289646505       12.4956745751       24.8274741058
  C         4.3786795309       14.0246994918       24.3574546953
  C         2.1766643400        9.4868005074       19.8481258862
  C        -0.4894313265       10.9068198284       26.7746657611
  H         0.2995246952        9.3674984560       25.4755803927
  C        -1.0107296025       12.6412414377       27.9567626461
  H         5.0427947664       13.5536825668       25.1069423748
  H         3.9480654359       14.8682462454       24.8541976280
  C         5.3061418178       14.4705028525       23.1747354691
  C         2.2957268606        8.1026429361       19.6693766790
  C         2.4080325074       10.3058186594       18.6580560446
  C        -0.8498485198       10.2161581489       28.0646543207
  C        -1.0824092392       11.5504211347       28.8490518181
  S        -1.3706005037       14.1406626931       28.6997361291
  H         6.2067521530       14.9212305447       23.5060770264
  H         4.8080667711       15.2621694411       22.6424090809
  C         5.5900072553       13.4845128043       22.0930201830
  N         2.2121342026        7.1571594460       20.6710931080
  C         2.5698819353        7.4696383511       18.4637943761
  C         2.6937934028        9.7386768375       17.4628292748
  H         2.6297565391       11.3477228903       18.7093432511
  C         0.4021499433        9.4198891530       28.6237921806
  C        -2.1501989334        9.3858714995       27.9887373448
  C        -1.3744139721       11.9629094917       30.1447907887
  C        -1.4417134578       13.3271833444       30.2845275553
  H         6.6301825710       13.4205226636       21.8740726531
  H         5.4371040988       12.4803040671       22.4986916234
  C         4.7968680368       13.8266706602       20.7796457578
  S         2.5198533228        5.6922443397       20.0243792837
  N         2.8496935899        6.1350211074       18.5181428635
  C         2.8121479736        8.2836288801       17.3383399788
  H         2.9589682147       10.4880808667       16.6290078496
  H         0.8885651868        8.7886168644       27.9355091591
  H         0.0456764013        8.8244774583       29.4189911496
  C         1.5233015002       10.2704136321       29.2620841501
  H        -2.0140006699        8.3898123801       27.5422530397
  H        -2.4061986712        9.1451110677       29.0002140848
  C        -3.2131402658       10.1263225339       27.1642961968
  H        -1.5730522675       11.2693293119       30.9322273364
  C        -1.7015235118       13.9745168570       31.6056362007
  H         4.9978110549       14.7707221518       20.4206007817
  H         3.7153470201       13.8132434962       20.8876669546
  C         5.1178421830       12.7788998060       19.7036475758
  C         3.1060330747        7.6081821661       16.0863355181
  H         1.8747039223       10.9293824385       28.4392468654
  H         1.1500579964       10.8704634328       30.0499579610
  C         2.5573693698        9.3411143313       29.8505854069
  H        -3.0066404567       10.1433745611       26.0854707705
  H        -3.3856836626       11.1712889510       27.4975908313
  C        -4.5641406409        9.5502035644       27.2492990910
  C        -1.8341626255       15.3487506240       31.8460329878
  C        -1.6791202033       13.1429786974       32.8423022361
  H         4.8958436940       11.7566454785       19.9982699486
  H         4.4361178782       12.9267583390       18.9015201823
  C         6.4919915190       13.0231864189       19.0766414589
  H         2.8606370036        6.5803795020       16.0946941334
  C         3.4904073102        8.1186684413       14.8589043166
  H         2.6596690685        8.6088574879       29.0857009390
  H         2.1416847186        8.7892743858       30.7270028354
  C         3.9070533512        9.9897357176       30.2926014569
  H        -4.5207868942        8.6808157601       26.6236653949
  H        -4.8239800972        9.2045024567       28.2167267607
  C        -5.6902872099       10.4685720272       26.8796909467
  N        -1.8079894983       16.3523865860       30.8796012581
  C        -2.1042453087       15.8966053112       33.0316824060
  C        -1.8355141182       13.7075019052       34.0629459017
  H        -1.4874671911       12.0754422009       32.8808971892
  H         6.7285743780       14.0750392895       18.9051239310
  H         7.1809321523       12.7047201640       19.8119047347
  H         6.6732795008       12.4410005809       18.2273878832
  S         3.8864949294        9.6878434603       14.4188983719
  C         3.4602827540        7.1339377008       13.7059510293
  H         4.2870095781       10.3346201195       29.3263739690
  H         3.7807749409       10.7764650446       30.8879397021
  C         4.8311334165        8.9433160482       30.9964043893
  H        -5.3723955991       11.3012961700       26.2450217761
  H        -6.0071656416       11.0150985514       27.7849736225
  C        -6.8865893699        9.6613480243       26.4255162854
  S        -2.0556025832       17.7603144606       31.4645713856
  N        -2.2946106550       17.2939315390       33.0098751682
  C        -2.1183553603       15.1554549983       34.2298420502
  H        -1.7399450269       13.0484697386       34.9000665170
  C         4.2620321297        8.9849138238       12.8172353401
  N         4.0900660271        7.6774329969       12.6425086297
  O         3.1915545730        5.9896654879       13.8502790376
  H         4.7525326420        8.9990124760       32.1130315075
  H         5.8500472277        9.2606110111       30.8598752888
  C         4.6124117378        7.4578867300       30.5361612989
  H        -6.6055886878        8.7462037051       25.8716947194
  H        -7.3607776924        9.4527333814       27.3404746866
  C        -7.7924897993       10.5611834798       25.6676656071
  C        -2.5012701235       15.8201015016       35.3931941467
  S         4.8126977860       10.0171528117       11.4924045430
  C         4.1891384012        6.8752047170       11.3796855885
  H         3.6231788555        7.1187069613       30.9703247218
  H         4.5278983227        7.3289902454       29.4818032705
  C         5.7499274955        6.5409214635       30.9890709083
  H        -7.2549644300       10.6619105654       24.6524597262
  H        -7.8784919201       11.6531865216       25.9902245692
  C        -9.2327988120        9.9170281592       25.6747744503
  H        -2.6673699546       16.8816697380       35.3345039417
  C        -2.9496708132       15.3107511780       36.5942720873
  H         4.9704222806        7.4080702032       10.8221311128
  H         4.5776655144        5.8899891362       11.6537300613
  C         2.8827149021        6.9187529160       10.5189760977
  H         5.3540014971        5.4662799353       31.0728836426
  H         5.9693088917        6.7933695102       32.0355574740
  C         7.0466191299        6.6369228848       30.1484122157
  H        -9.6874064869        9.9547855399       24.6864178096
  H        -9.0962097720        8.8581661418       25.8766349210
  C       -10.1449717064       10.2696536840       26.7987708752
  S        -3.3419759950       13.6487155026       36.9488103175
  C        -3.1238577476       16.2246378945       37.7219272545
  H         2.3123801987        7.8492415015       10.6306590022
  H         3.0612090660        6.7740906519        9.4483262816
  H         2.2071668816        6.1749808774       10.9215882315
  H         6.8787753044        7.2458803887       29.2477452110
  H         7.1786120545        5.7035389230       29.6485443857
  H         7.8467598075        7.0056357717       30.6577408662
  H       -10.6872570404       11.1814249050       26.4893237769
  H        -9.6638745003       10.4180138043       27.7582456648
  H       -10.8734320565        9.4725731356       26.9430177060
  C        -3.8994218942       14.2463901468       38.5079638791
  N        -3.8510816646       15.5921040313       38.6801756447
  O        -2.9267553348       17.4877559653       37.5987008404
  S        -4.9072268021       13.2954583102       39.5682616902
  C        -4.2528193204       16.3405927672       39.8422108412
  H        -4.5132506912       17.2925081468       39.4733448486
  H        -5.1303166370       15.9039895569       40.4320180775
  C        -3.0295425242       16.4519082223       40.7574815685
  H        -2.3811061726       17.3295788199       40.5593660323
  H        -3.2865335364       16.5921716393       41.8301793747
  H        -2.3672122328       15.5707841028       40.6349860866
  H         7.3381085588       10.6482775004        4.3434510392
  C         8.0951156604        9.8246057422        4.3455057648
  H         7.5077144899        8.9406546277        4.2893216573
  C         9.1047454381        9.9646806739        5.5116083150
  C         8.7596642353        9.9762818638        2.9796831465
  C         8.3477227433       10.3041135427        6.8031703251
  H         9.6826843359        9.0540306208        5.6610231772
  H         9.7910058334       10.6996435725        5.3062504122
  H         8.0472435703        9.8625429623        2.0935037307
  H         9.6795537401        9.3786380411        2.8240348400
  H         9.1133573919       10.9830841712        2.9396005391
  C         7.4518191613        9.2018452580        7.2675949667
  H         8.9129257593       10.5635521285        7.6141912714
  H         7.7093056505       11.1907470416        6.6683692927
  C         6.5057165812        9.5807074169        8.4070854444
  H         7.9928348664        8.2770407528        7.3876335736
  H         6.7692429965        8.9165589100        6.5303088826
  C         5.4376518761       10.5184109414        8.1133432160
  H         7.1168190540        9.9090101814        9.2515479288
  H         6.1111123689        8.6620503850        8.7741508874
  C         4.3484760712        9.7899818314        7.3620918176
  H         5.0323686876       10.9461659763        9.0790458400
  H         5.7092757239       11.4275437926        7.5121663941
  C         3.0980564798       10.6190273307        7.1044767937
  H         4.0876475814        8.9668643293        8.0353925182
  H         4.5757032551        9.3960822537        6.3997874485
  C         3.3962989506       11.9522245689        6.4545652797
  C         2.5647353831       11.3181297924        8.3557626410
  C         1.8980822871        9.8768369310        6.4121409792
  C         3.1841944089       13.0323605207        7.2616777664
  C         3.9052305846       12.2975780310        5.1999599715
  C         2.6153472009       12.7074728102        8.5149244886
  C         2.0001972218       10.7726260218        9.5096377659
  H         2.2254396531        9.5544941876        5.3942412366
  H         1.7645590328        8.9502199695        7.0192134013
  C         0.5717279445       10.7176219914        6.3450541894
  S         3.4460701249       14.5352266260        6.5049527137
  C         3.9062187099       13.6805467858        5.0173106124
  H         4.2431595996       11.5390001580        4.4780310288
  C         2.1401122863       13.3724764009        9.5725426215
  H         1.8455927407        9.6967025257        9.5391364437
  C         1.6179933434       11.4346735412       10.6745834970
  H         0.7994567405       11.7476574260        6.0014907821
  H         0.1420491195       10.7965087095        7.3973173033
  C        -0.4494110928       10.2097963004        5.3609578400
  C         4.3267282067       14.3833012983        3.7418840688
  C         1.6465997918       12.7840227632       10.7570199240
  H         2.2592967500       14.4163519041        9.5648509263
  C         1.2088281181       11.0145192015       11.9216281647
  H        -1.3753597599       10.7980786504        5.5200919521
  H        -0.8191190059        9.2129165011        5.5251671578
  C         0.0001247441       10.3517828327        3.9035159202
  C         4.3363085193       15.7485321251        3.4535890221
  C         4.6792274312       13.5494763736        2.6254775897
  C         1.2090268072       13.4846984111       11.9860563349
  C         0.9612065887       12.1316686078       12.7213499361
  S         0.8271992481        9.4666658170       12.5992775021
  H         0.8499763242        9.6227761494        3.6251250371
  H         0.4275701495       11.3884644752        3.8117507867
  C        -1.1188023095       10.3599569685        2.9035300042
  N         4.0886572263       16.7036669703        4.4404067923
  C         4.6715017950       16.3397466748        2.2595542806
  C         4.9162281732       14.1268833342        1.3470256454
  H         4.7646789509       12.4199636177        2.6709857765
  C        -0.1215147304       14.2823657294       11.7477799351
  C         2.3705376069       14.2731861951       12.5495175217
  C         0.4568920464       11.6377400290       13.9643155235
  C         0.3260157970       10.2458614759       14.0493376111
  H        -1.8144809195        9.6163291791        3.1896538718
  H        -1.6916313040       11.3082681380        2.9848964616
  C        -0.7666530961        9.9839471342        1.4375002454
  S         4.2227901047       18.1605672132        3.7654508087
  N         4.6504747382       17.7047632068        2.2505417456
  C         4.8970340958       15.5751720429        1.0979766722
  H         5.1116373075       13.3614740605        0.5959017734
  H         0.0160997806       14.9242599246       10.8717345067
  H        -0.2465625216       15.0674368139       12.4840866589
  C        -1.2521866248       13.3776713794       11.3060307636
  H         2.9744255993       14.9032857202       11.8973047813
  H         2.0691803615       14.9768270926       13.3461280170
  C         3.4415023556       13.3938424296       13.2523000699
  H         0.1927863165       12.3666597354       14.7392416529
  C        -0.0901347854        9.4362918758       15.2343532449
  H        -0.0946227524        9.1906977621        1.4799549255
  H        -0.1597788861       10.7311411966        0.8613477123
  C        -2.0216243934        9.5863263567        0.6505611986
  C         5.2290743097       16.1988311279       -0.2229653834
  H        -0.8917918563       12.9253671919       10.4076339880
  H        -1.3901089380       12.7057051626       12.1115122840
  C        -2.5459916136       14.0322425809       11.1213729052
  H         3.7816489696       12.5288396214       12.6492608965
  H         3.0869082420       12.8972826208       14.1045049610
  C         4.6576470848       14.1888559304       13.7112764119
  C        -0.0284223423        8.0622693500       15.4537021247
  C        -0.2353522979       10.2381121951       16.4906329450
  H        -2.1125202935        8.4707103321        0.6421373180
  H        -2.8953342137        9.9900679171        1.0938903966
  C        -1.8979210985        9.9907269981       -0.7951256685
  H         4.9020449999       17.2213942875       -0.2393711971
  C         5.5308589537       15.7028667397       -1.4728093467
  H        -2.4147394864       14.8282759337       10.3735466950
  H        -2.9587273383       14.4387558061       12.0384897031
  C        -3.5040675233       13.1239536036       10.4852332282
  H         4.9645592576       14.8312646156       12.9091043079
  H         4.3871014334       14.7155599534       14.5650054983
  C         5.8795976410       13.3885011965       14.2336612269
  N         0.2668034389        7.1577232990       14.3867943969
  C        -0.3654614971        7.4666032635       16.6394252338
  C        -0.5676690810        9.7060041453       17.7069137468
  H        -0.1829395433       11.2990695583       16.3590888464
  H        -0.9383116636        9.6309094778       -1.1781893293
  H        -1.9440352948       11.0718207495       -0.9886685594
  H        -2.7026271138        9.5035725001       -1.3169573442
  S         5.6449942820       13.9939785301       -1.7801085301
  C         5.5211569211       16.6103675469       -2.5851448767
  H        -2.9380336357       12.5200671904        9.7630596959
  H        -4.0351751852       12.4971335112       11.2284113072
  C        -4.6144359087       13.9517079772        9.8085941044
  H         6.2993726755       12.8265702468       13.3922770376
  H         5.5843040169       12.6013094343       14.9138697614
  C         6.8535314818       14.2683809705       14.9937043872
  S         0.1364155446        5.6888644819       15.0394749025
  N        -0.2402809141        6.0717068504       16.6111406926
  C        -0.6540298302        8.2070700040       17.7829647595
  H        -0.8115811245       10.3281975349       18.5685442890
  C         5.8364987782       14.5128609037       -3.4390465688
  N         5.7358733398       15.8544273965       -3.6900657925
  O         5.3367759818       17.7995651322       -2.4227299365
  H        -4.9266931728       14.6917533064       10.5562381021
  H        -4.2641725493       14.4560692267        8.8648142772
  C        -5.8513755329       13.0686421656        9.4293427454
  H         6.4670270996       14.2847419148       16.0322758082
  H         7.7691514670       13.6526517742       15.1171943836
  C         6.9935362480       15.7358704977       14.5322693204
  C        -0.9905632438        7.4646280870       18.9393504754
  S         5.9891467862       13.4734143156       -4.9073601249
  C         5.8585814911       16.4589334174       -5.0223984298
  H        -5.5439210858       12.3685631765        8.6970333026
  H        -6.2508824055       12.5401185672       10.1730554649
  C        -6.9698557067       13.8522439811        8.7450588787
  H         6.2851496571       16.3956706803       14.9636431571
  H         6.8625752883       15.7241601521       13.4977382032
  C         8.3601167470       16.2502883089       14.8060956977
  H        -1.1028221176        6.3895335077       18.8170749316
  C        -1.5241858948        7.7803060948       20.1398994093
  H         6.6448931802       16.0155740192       -5.5905126538
  H         6.1818464575       17.4933960213       -4.8322032877
  C         4.5187922779       16.4347905401       -5.7695865239
  H        -7.5083550980       13.2850510551        8.0791355684
  H        -6.5708637660       14.6577636525        8.1330949545
  C        -7.9680393207       14.4345834813        9.7846758471
  H         8.6900760584       16.1652919409       15.8272091667
  H         8.9891790548       15.6585499460       14.2555598751
  C         8.5724465709       17.6697289839       14.3879539453
  S        -1.9258736783        9.3839676842       20.7404614858
  C        -1.6999055856        6.6539007817       21.0843477072
  H         3.7049895804       15.9025760946       -5.2833908913
  H         4.5892929017       15.9728848875       -6.7846548658
  H         4.0692311056       17.4206689081       -5.7629687297
  H        -8.5926960498       13.6951278161       10.3127359404
  H        -7.3522772499       15.1573275947       10.3769772296
  H        -8.7052027108       14.9774851351        9.2537694688
  H         7.6475434290       18.1658036135       14.1182487203
  H         8.9461373709       18.2658892142       15.1756656914
  H         9.3124261455       17.6333815077       13.5126084384
  C        -2.4985913707        8.5148049147       22.1594257342
  N        -2.3127684548        7.1773689391       22.1438927700
  O        -1.3578657445        5.4492064600       20.9178905416
  S        -3.1019690151        9.2478261784       23.5802423993
  C        -2.5129912716        6.3298408755       23.3164231871
  H        -2.6175532572        5.3044190559       23.0070355156
  H        -3.4579966004        6.4834379010       23.8423772798
  C        -1.3777008254        6.4053233810       24.3595103835
  H        -1.7657525613        6.7399482581       25.2220673291
  H        -0.5174986853        7.0420270389       24.0506949121
  H        -1.0301573545        5.3468669665       24.4673431463
