352
i =
  H        -3.0970262469       15.1538240301       16.2284110681
  C        -3.3598758599       14.1418639005       16.3078214863
  H        -4.3979182821       13.9613896028       16.6936058136
  C        -2.4942854678       13.5649529568       17.3606527913
  C        -3.1323390162       13.4839707334       14.9497158818
  C        -2.4963026885       14.3532279066       18.7051605810
  H        -2.5699358623       12.5381544076       17.5302344169
  H        -1.4740237462       13.7217788122       17.0026995655
  H        -3.0603980872       12.3891870044       15.0415606537
  H        -4.0275608457       13.7699051574       14.3541968981
  H        -2.2345348969       13.8750202769       14.4329820728
  C        -1.5132683493       13.6724091094       19.6824117123
  H        -3.4880162216       14.3432758464       19.1024316068
  H        -2.1975416792       15.3923415099       18.6397224565
  C        -2.0810109275       13.5270834233       21.0751390881
  H        -1.1168838168       12.7163681241       19.3031722208
  H        -0.5830896040       14.2527048139       19.6336103100
  C        -1.0809735862       12.8589798739       21.9596247720
  H        -3.0306407121       12.9400646625       21.0005250762
  H        -2.4836577606       14.5248846578       21.4237227571
  C         0.0442470302       13.8124461998       22.3908239184
  H        -1.4675406329       12.6625635006       22.8964013290
  H        -0.9120519628       11.8382695122       21.5357391149
  C         1.0937454965       13.0809945974       23.2713795622
  H         0.6786634077       14.0533182304       21.4723513376
  H        -0.2931454974       14.7031736795       22.8931913062
  C         1.4952599588       11.7093101519       22.6939284627
  C         0.5049411231       12.3951254745       24.4835446680
  C         2.3260482412       13.9673327534       23.5289274692
  C         1.1488678507       10.6467357771       23.4661901642
  C         2.2002737819       11.1688844160       21.5508066842
  C         0.5829129755       11.0405089197       24.6219816026
  C         0.0066257652       13.0905900946       25.5814324982
  H         2.6855228259       14.4434667933       22.6592843001
  H         2.0796685395       14.8195623251       24.1196711316
  C         3.5051092110       13.2523629224       24.2136493849
  S         1.4717300370        9.1043565243       22.8529774030
  C         2.1965211044        9.7791884060       21.5006304809
  H         2.6482863068       11.8368696931       20.9058331747
  C         0.1166305106       10.4278410019       25.6972530459
  H         0.0142736337       14.1932192821       25.5305606941
  C        -0.4341874124       12.3902275266       26.7633192337
  H         3.8687208421       12.4184442092       23.5820202571
  H         3.2197515737       12.7659684721       25.1978228592
  C         4.7169721111       14.1837265052       24.5056027001
  C         2.6771122510        9.0418696593       20.2846797497
  C        -0.3891237835       11.0391853195       26.8207681443
  H         0.0323058917        9.2769397850       25.6775152318
  C        -0.8154134867       12.7869991904       28.0339800099
  H         5.4875118387       13.6599580458       25.0570139112
  H         4.4127805706       14.8324029442       25.3147897221
  C         5.2423713603       14.8841716592       23.2470019863
  C         2.5746744994        7.6231020771       20.0157161189
  C         3.3362402645        9.7737370717       19.1211662156
  C        -0.7802988787       10.4081524702       28.1476992610
  C        -1.0281300457       11.7479355058       28.8117794674
  S        -1.0745426579       14.2886072197       28.8525838203
  H         5.8037585926       15.8004705702       23.5065691133
  H         4.4682084379       15.3186402014       22.6134127499
  C         6.1944539490       14.0247821835       22.4188918052
  N         2.1203203858        6.7355799929       21.0071583690
  C         2.7515049258        6.9514254138       18.7878317091
  C         3.5871841648        9.1366943457       17.9047955911
  H         3.6935139150       10.7557476931       19.3159739849
  C         0.4083960550        9.6583821674       28.8298159393
  C        -2.0880775588        9.6267735188       28.1163203500
  C        -1.4132996267       12.1117397253       30.1145547237
  C        -1.3205095824       13.4408253366       30.2627617012
  H         7.1675156548       14.4652466940       22.2787712383
  H         6.5011654703       13.1456383996       23.0105345819
  C         5.5800495006       13.5771037747       21.0810845628
  S         2.0110342718        5.2815505459       20.4071583197
  N         2.4823674209        5.5707645439       18.8548384454
  C         3.2762688588        7.6787833613       17.6670667089
  H         4.1591400382        9.7795720242       17.2532816271
  H         0.6926746025        8.7529893218       28.2778112496
  H         0.0180626547        9.2957196450       29.8162529413
  C         1.6544128609       10.3992520951       29.0112444647
  H        -1.8589947051        8.6389342617       28.0210907146
  H        -2.4832664688        9.5119760665       29.0698485972
  C        -3.0874722910       10.0858724743       27.1230302741
  H        -1.5905247551       11.3679972670       30.8547605251
  C        -1.3767045584       14.1535768375       31.5961009389
  H         5.4032041454       14.4467895921       20.3315840942
  H         4.6153696901       13.1914441338       21.2248644620
  C         6.2921720309       12.4132457127       20.3624122856
  C         3.3933281970        7.0152185128       16.4152151870
  H         2.0712971839       10.7072383640       28.0576148399
  H         1.5421711711       11.4343858517       29.4751115257
  C         2.7339656373        9.5311241736       29.6935765115
  H        -2.6833286514       10.0702518815       26.0939468975
  H        -3.2453935868       11.1187674053       27.3784310564
  C        -4.4669265653        9.5117324637       27.2298716718
  C        -1.4774891402       15.5514123471       31.8183206309
  C        -1.6339916403       13.3217397060       32.7758182573
  H         6.5481503793       11.7491729775       21.1135142819
  H         5.5808465745       11.7477446900       19.7775155548
  C         7.6085836622       12.8707052219       19.6978453906
  H         3.2655811336        5.9839400538       16.6171083954
  C         3.6542743132        7.4072063628       15.1297338598
  H         3.0259520595        8.6447980361       29.1244669224
  H         2.2105025408        8.9766142832       30.4653019031
  C         3.9989107830       10.2968382737       30.1505536465
  H        -4.6428904750        8.6369136622       26.5335235156
  H        -4.5270068891        9.0656728955       28.2413604593
  C        -5.5829215582       10.5254512788       27.0500353660
  N        -1.3360394148       16.4562629700       30.7844155394
  C        -1.6822112659       16.1271606550       33.0295553905
  C        -1.9406294173       13.9009176450       34.0394598927
  H        -1.4704407038       12.2672953716       32.7149979925
  H         8.2815646670       13.4173535977       20.3440396835
  H         8.2048487427       11.9898543751       19.3974747557
  H         7.3346158159       13.5107693106       18.8063244673
  S         4.0956094143        8.9621754304       14.6043431393
  C         3.5518729335        6.3670689943       14.0643051169
  H         4.1521494209       11.2453940375       29.5819933466
  H         3.6851975797       10.5538392435       31.1730995375
  C         5.1954378934        9.4321687856       30.2087512159
  H        -5.3252540425       11.1979467569       26.2153708008
  H        -5.6473215678       11.1222567025       27.9352308380
  C        -7.0287803796        9.9933753846       26.8315868598
  S        -1.3259926336       17.9555506880       31.3816442867
  N        -1.7348553908       17.4971045209       32.9418730091
  C        -2.0407143759       15.3868123450       34.1715960914
  H        -2.0301057906       13.2023159020       34.9165698265
  C         4.0919273106        8.2418562801       12.9670271735
  N         3.9107615450        6.9186536730       12.9258114837
  O         3.3375567214        5.1906803544       14.3594717735
  H         5.9983076470        9.9950487398       30.6190166290
  H         5.4218259685        9.2709690002       29.1834116568
  C         5.1594344974        8.1580078154       30.9724283922
  H        -6.9905460921        9.0696072533       26.2115725519
  H        -7.4012813082        9.6866889318       27.8085395585
  C        -8.0403262688       10.9819996516       26.2667235465
  C        -2.2150263947       16.0809473185       35.3497842743
  S         4.5239728800        8.9829335910       11.4796836332
  C         3.8000645295        6.1897275527       11.6270664801
  H         5.6452489311        8.1924246848       31.9549488762
  H         4.2217968094        7.7510154328       31.2537436597
  C         5.9583232338        7.1028613597       30.1832757377
  H        -7.4809469732       11.8077097007       25.9721692542
  H        -8.5871477652       11.2398867482       27.1321351326
  C        -8.9899165145       10.3690930792       25.2726537381
  H        -1.8996542957       17.1220274243       35.3387691882
  C        -2.7644500662       15.6727233428       36.5729650774
  H         4.6371790328        6.3193248432       10.9313965094
  H         3.8589498635        5.1448326130       11.9372382873
  C         2.5441214303        6.4929705524       10.9361769852
  H         6.8320951370        7.5744478474       29.7013711860
  H         5.4464841716        6.8345642066       29.2583974921
  C         6.4435036771        6.0463791451       31.2017723724
  H        -9.3769239699       11.0285506652       24.5748232814
  H        -8.5301787730        9.5420013017       24.7134827912
  C       -10.1280616102        9.7662203239       26.0736441683
  S        -3.4116352801       14.1548558370       37.0049212783
  C        -3.0269924581       16.7396950561       37.5341721694
  H         2.3481155445        7.5055073603       10.6363880867
  H         2.4079469958        5.8061542950       10.1077810610
  H         1.7168582143        6.3172210213       11.6070397274
  H         5.6176004120        5.4597534560       31.5090160977
  H         6.9125568875        6.5516007385       32.0607032923
  H         7.1934802573        5.3573652588       30.7316839249
  H       -10.9259444318        9.3628154381       25.4569643542
  H       -10.4473513930       10.5949068342       26.7401340810
  H        -9.9833469262        9.1905854394       26.9733604236
  C        -3.9658509306       14.9438264702       38.4850548581
  N        -3.6469940954       16.2502981008       38.6165855512
  O        -2.5838494970       17.8862443377       37.4896408964
  S        -4.7258455106       14.0486657767       39.8096180572
  C        -3.8385925157       17.0184111492       39.8561747027
  H        -4.2910158346       17.9386535361       39.5860436312
  H        -4.5843589613       16.5887731151       40.4646349614
  C        -2.5426081366       17.1994195913       40.5461893800
  H        -2.7243821143       17.9913045593       41.3145014311
  H        -2.1767251293       16.2638255540       41.0278973362
  H        -1.7138532229       17.4631160079       39.8393915730
  H         7.9096846342       10.5329054815        3.5712538323
  C         8.4991742627        9.6055104797        3.6151154019
  H         7.7508124478        8.8278484035        3.5635730836
  C         9.1656116687        9.5634533994        4.9076613232
  C         9.4854962949        9.3675800008        2.4403488779
  C         8.2159802406        9.8913016388        6.0035281305
  H         9.7872077506        8.6890947540        5.1792853260
  H         9.9019231566       10.4268267229        4.8217204227
  H        10.4176567642        8.8324021155        2.6351922825
  H         9.6442149556       10.2695320586        1.8900873100
  H         8.8833132808        8.7305979489        1.7968269510
  C         7.1917757155        8.8011303305        6.4945725865
  H         8.7973248884       10.1324377693        6.8903674214
  H         7.6930634271       10.8820153212        5.7701735892
  C         6.6074860184        9.1513430565        7.8279170749
  H         7.6894275560        7.8942890026        6.7101009589
  H         6.4325563705        8.5048703835        5.6619985014
  C         5.3237460134       10.0377053358        7.8159796153
  H         7.3364641327        9.6352312330        8.4239404621
  H         6.3889855358        8.1798069556        8.2247010440
  C         4.0226893513        9.3518290473        7.2978881459
  H         5.1268277763       10.2345116922        8.8918387897
  H         5.4804144938       10.9421286843        7.2673376003
  C         2.8201324719       10.3056086741        7.1235980605
  H         3.7935526665        8.5389564756        7.9861026464
  H         4.3067961867        8.9309023866        6.3222979466
  C         3.2646821799       11.6282615675        6.4390305374
  C         2.5057580684       11.0351268897        8.3640318666
  C         1.6253812270        9.6635069601        6.5035337922
  C         3.1302225201       12.7454943760        7.2413554834
  C         3.7005626461       12.0458790445        5.1453094383
  C         2.5960553701       12.3651439006        8.4658410939
  C         2.1220006368       10.3924947606        9.5479636728
  H         1.9300588680        9.2884664309        5.5091301987
  H         1.3514009447        8.7600197105        6.9916781875
  C         0.3672362591       10.5216209564        6.2234403480
  S         3.6346424534       14.1999303122        6.5850958333
  C         3.9064829657       13.3533915297        5.0596639084
  H         3.7198995277       11.2536440785        4.4573795998
  C         2.2196002504       12.9977199269        9.6404231997
  H         2.1945958857        9.3485567056        9.4794187015
  C         1.7829714564       10.9727435359       10.7254375313
  H         0.5735461089       11.5980667723        6.0914546750
  H        -0.1229672262       10.3641324933        7.1612385472
  C        -0.5707490971        9.9696792653        5.1351572132
  C         4.4057239180       14.0563619221        3.8294109499
  C         1.8245637479       12.3261893931       10.8235820480
  H         2.3134242551       14.0830309987        9.6883848280
  C         1.2708276885       10.6483460851       11.9776073155
  H        -1.5479593780       10.5123135419        5.1877819488
  H        -0.7886042873        8.9019284522        5.3768695985
  C         0.0031672637       10.1724386469        3.7353707990
  C         4.3082886123       15.4685910791        3.6359866847
  C         4.7116510510       13.2552145235        2.6142442011
  C         1.3402770702       13.0491637782       12.0429738761
  C         0.9940357005       11.7446974646       12.7890117317
  S         0.7921593991        9.1567886487       12.7001849207
  H         0.9191769917        9.5757116295        3.5512828294
  H         0.0736750438       11.2738876625        3.5620098864
  C        -0.9603685973        9.7132686533        2.7077251883
  N         3.9651453039       16.4278609677        4.6218418816
  C         4.4643143424       16.0091449133        2.3470715931
  C         4.9676911920       13.7872888442        1.3576676606
  H         4.7283771484       12.2274904064        2.7322423612
  C         0.1077267217       13.8537589276       11.6877211385
  C         2.5242366736       13.8147727445       12.6403758528
  C         0.5062571618       11.3753414818       14.0411051796
  C         0.4280435638       10.0021618297       14.1609597082
  H        -1.4941418759        8.7505146334        2.9348157767
  H        -1.6995826594       10.4956707958        2.6979314976
  C        -0.2371157068        9.5711245386        1.3570001629
  S         4.0034476402       17.8740754536        3.8976342469
  N         4.2888124146       17.3902230361        2.3504050026
  C         4.8674319255       15.2800292661        1.2090255651
  H         5.0950843932       13.1422529683        0.5308317229
  H         0.3245103338       14.5024732689       10.8478382756
  H        -0.2297716759       14.5730103156       12.4534997165
  C        -1.1461452363       12.9890305468       11.4340522847
  H         2.7900873912       14.4433729573       11.7973750592
  H         2.1409212391       14.5145656956       13.4451208883
  C         3.7589378024       12.9420016809       13.0439586969
  H         0.2907030050       12.1160275944       14.7587271779
  C         0.1409535547        9.2832644556       15.4496474360
  H         0.4685236763        8.7188635246        1.3509787371
  H         0.4876697411       10.4273324206        1.2498970246
  C        -0.9759792988        9.2807148534        0.0329672874
  C         5.1251271445       16.0391481718       -0.0322897765
  H        -0.9696043309       12.3539068431       10.5845899411
  H        -1.4005161680       12.2284896372       12.1732215381
  C        -2.3601084347       13.8757403806       11.0594224596
  H         4.1803440050       12.4081160082       12.1725244928
  H         3.4524097386       12.1790672139       13.7376319006
  C         4.7746888816       13.8333299921       13.6842365269
  C         0.0738095460        7.8821791172       15.6556831757
  C         0.3093546987       10.0930745605       16.7535015745
  H        -1.2082091667        8.2123724397        0.0232563164
  H        -1.8723750836        9.8727597917       -0.0397647677
  C        -0.0905855604        9.5473822525       -1.1668829708
  H         4.8974630971       17.0942921805        0.0621310038
  C         5.4150261405       15.6556207994       -1.2786777390
  H        -2.0634545717       14.4671692886       10.2087084453
  H        -2.6321384667       14.5672781950       11.8438011980
  C        -3.4892904642       12.8798383733       10.7364903253
  H         5.1737939961       14.4487849446       12.8340283352
  H         4.4128440510       14.4863174214       14.5557390674
  C         5.9774565675       12.9285031672       14.0447619085
  N         0.2332528793        6.9167255188       14.6613017670
  C        -0.1638562974        7.3144298299       16.8702574015
  C         0.0687131882        9.4495063125       17.9679007666
  H         0.5023625789       11.1528550301       16.6444206852
  H         0.8108458556        8.8665856992       -1.2270319695
  H         0.1727980583       10.6086371290       -1.3068062428
  H        -0.7585212192        9.3648037446       -2.0819274592
  S         5.5690873898       14.0293484533       -1.7988598977
  C         5.5783084889       16.6419899944       -2.3295716640
  H        -3.2103895232       12.2517405688        9.8555060335
  H        -3.7469194204       12.3570830909       11.6720208553
  C        -4.7508506992       13.5715182884       10.2591281176
  H         6.3452611158       12.5113859553       13.1163937609
  H         5.5966462177       12.0695733421       14.5586232103
  C         7.1262935812       13.7934900038       14.5753949881
  S         0.0474249154        5.4535750484       15.3525660397
  N        -0.3613283882        5.9169468578       16.8477105248
  C        -0.2904411478        8.0526022309       18.0495400727
  H         0.3070470330       10.0043732181       18.8838057136
  C         5.8718329182       14.6834486671       -3.3978097699
  N         5.8859781575       16.0263695982       -3.4726539938
  O         5.5035143240       17.8693276352       -2.0272526365
  H        -5.1180466264       13.9483893303       11.1883654796
  H        -4.4285749650       14.3798251680        9.6501333549
  C        -5.7463696096       12.5731345922        9.5316398936
  H         6.7436829144       14.4492589707       15.3482016304
  H         7.7261087884       13.0883353489       15.1154036207
  C         8.0402957883       14.5384245829       13.5111236045
  C        -0.6898598801        7.4039575837       19.2728981111
  S         6.3888286284       13.7309180573       -4.7706900231
  C         6.0877126226       16.7763647620       -4.7000647070
  H        -5.3790418677       12.1510680935        8.6228154999
  H        -5.8838938763       11.7293614644       10.1745600034
  C        -7.1108777468       13.2407894071        9.1028270533
  H         7.5118724283       14.8208963895       12.5405595510
  H         8.8127864481       13.9296908841       13.0694582229
  C         8.7171752159       15.7793931792       14.1150052287
  H        -0.6261063133        6.3233004069       19.2635398419
  C        -1.3621507043        7.8771196047       20.3444903859
  H         6.8220389260       16.4035902719       -5.4973054303
  H         6.5997095926       17.7094934955       -4.4488052930
  C         4.7851018263       17.1730349622       -5.2739216963
  H        -7.4036242385       12.9493690812        8.0796981934
  H        -6.8584044261       14.2887087174        8.8748661038
  C        -8.2407433334       13.0163406017       10.1745741687
  H         9.0104584969       15.6054605644       15.1078731889
  H         9.5998108834       15.9663597738       13.5333356979
  C         7.9163770212       17.1009575550       14.0313817723
  S        -2.0791586374        9.4496151633       20.5958529331
  C        -1.5099528122        6.8617504831       21.4316100727
  H         4.2514531998       17.9468813680       -4.5898963467
  H         4.1645716760       16.2782106009       -5.4387413147
  H         4.7833642489       17.5151855315       -6.3172900037
  H        -9.0747088395       13.6862528126        9.9795899742
  H        -8.7476767115       12.0437207967       10.0131973159
  H        -7.9962246350       13.1249840796       11.1843112596
  H         7.1627451064       17.0846381067       13.2385804121
  H         7.2663025720       17.3311660341       14.9659347039
  H         8.6149537320       17.8270437106       13.8959379453
  C        -2.5318474970        8.7488416729       22.2065565663
  N        -2.1724003499        7.4671495693       22.4666633108
  O        -0.9311320947        5.8037600780       21.4445316144
  S        -3.5499388592        9.4963268078       23.4011307540
  C        -2.3119101983        6.7243586136       23.7109712212
  H        -2.6604383629        5.7235136719       23.4257264222
  H        -3.1310789011        6.9817993330       24.3975021099
  C        -1.0430010614        6.7208897691       24.5530517080
  H        -0.3775683242        5.9027892374       24.2101098645
  H        -1.2961245699        6.3647288567       25.4304365312
  H        -0.5224470246        7.6204207778       24.4635824658
