352
i =
  H        -3.4409719584       14.6926955719       16.3164320807
  C        -3.0484155985       13.6718924029       16.4368793495
  H        -3.8588313801       13.0000565473       16.7869323847
  C        -1.9004310624       13.6705112699       17.4214595846
  C        -2.7853477546       13.2945722525       14.9727911245
  C        -2.4089705787       13.9258742869       18.8321812015
  H        -1.4000224613       12.7166198737       17.4082686064
  H        -1.2273229728       14.5028830039       17.1263357587
  H        -3.1160951991       12.2088792843       14.7914118713
  H        -3.2064154854       13.9901788188       14.2237576036
  H        -1.7282673763       13.3073920455       14.7129839048
  C        -1.4102537349       13.9378979662       19.9322125356
  H        -3.1602707809       13.1777757739       18.9116551578
  H        -3.0007965090       14.8838551063       18.9463079318
  C        -1.9955794454       13.8009998834       21.3575649629
  H        -0.6734704919       13.1630631535       19.7512721714
  H        -0.8159012004       14.8450868917       19.9292712195
  C        -1.0392865824       13.0177316124       22.3824951150
  H        -3.0285291643       13.4563711953       21.2180994297
  H        -2.1567062234       14.8301237657       21.7512803048
  C         0.1209529978       13.8991278375       22.7654971255
  H        -1.6632286517       12.8858471979       23.3110307548
  H        -0.7175954741       12.0827245204       21.9271138159
  C         1.3887436869       13.0493139037       23.3389407260
  H         0.3779301292       14.5476711435       21.9969645782
  H        -0.2131889126       14.5958880479       23.5969882439
  C         1.7037936502       11.6884195098       22.6192232480
  C         0.9074172715       12.3841415972       24.6592049296
  C         2.6845367358       13.8923836572       23.3332821518
  C         1.3788987606       10.6250900986       23.4775301220
  C         2.2074689236       11.3045321792       21.4102770171
  C         0.8649324638       11.0561075760       24.6861081493
  C         0.3786469403       12.9880546511       25.8300513743
  H         2.8307910408       14.2110752964       22.3221042058
  H         2.4985587407       14.6895996795       24.0109830715
  C         3.8988014487       13.1328338374       23.9904329946
  S         1.5616830136        9.0950446737       22.7529577096
  C         2.2312228254        9.9278975280       21.3523123814
  H         2.4844038266       12.0042626654       20.7000381896
  C         0.3474001242       10.4093380122       25.7686801395
  H         0.3910055740       14.0783274226       25.8956262761
  C        -0.1190151600       12.3703376316       26.9593691062
  H         4.0357410059       12.2266372020       23.4747848532
  H         3.6078412472       12.8967971559       24.9884517028
  C         5.1477415593       13.9018704000       24.2593050728
  C         2.5619337310        9.2026794411       20.0590042658
  C        -0.1033329572       11.0247344545       26.9912486447
  H         0.3022645121        9.3450031670       25.7783023111
  C        -0.6927716324       12.7395767004       28.1217157405
  H         5.8304818160       13.1703271937       24.7318140032
  H         4.9834459827       14.6756390229       25.0979838524
  C         5.6601935111       14.4857322370       22.9295339957
  C         2.5010901936        7.8230141482       19.8615392166
  C         3.0590225947        9.9981415231       18.9615399990
  C        -0.5896896964       10.3199469741       28.2177829444
  C        -0.9070601098       11.6585567591       29.0152905259
  S        -0.9011012938       14.2917204921       28.8554229010
  H         6.3496273964       15.2195504588       23.1718090796
  H         4.7897338650       14.9615209708       22.5600709483
  C         6.4425686885       13.4876681385       22.0123140524
  N         2.1692395291        6.9393554432       20.8440054085
  C         2.7544618035        7.2353228934       18.6530533352
  C         3.3246171823        9.4538312967       17.7025319867
  H         3.3941435416       11.0622921591       19.1090826461
  C         0.4607591579        9.4085547656       28.8704059852
  C        -1.8976322120        9.4809864414       28.0252834273
  C        -1.3541464303       12.1496597481       30.2368285661
  C        -1.3753976118       13.5289262644       30.3307263584
  H         7.3173566891       14.0618482741       21.6727971709
  H         6.8944237526       12.6205673596       22.5711579812
  C         5.5878572135       12.9962278846       20.8294044141
  S         2.1804532620        5.4470514122       20.1811127433
  N         2.5542136152        5.8864657111       18.6903771889
  C         3.1555973506        7.9636746939       17.5026745227
  H         3.7256065653       10.0328185667       16.9391390360
  H         0.8266345847        8.8285475718       28.0581057378
  H        -0.0442690098        8.6759618145       29.4588314531
  C         1.5913282940       10.2032326383       29.6348767464
  H        -1.6413605313        8.6829905967       27.3800232810
  H        -2.2367798521        9.0411775492       28.9496356160
  C        -2.9352666801       10.4124612089       27.4177885600
  H        -1.6147264439       11.3933213099       30.9473806309
  C        -1.6009469653       14.2421274621       31.6783699842
  H         4.5097294033       13.1858734994       20.9708877846
  H         5.7138041666       11.9439181931       20.7763517452
  C         6.0833548952       13.6028700989       19.4528312367
  C         3.2392579294        7.3591177337       16.2025229119
  H         1.8940428898       11.0896905126       28.9638414939
  H         1.1783177143       10.7354511436       30.5312449696
  C         2.6912562827        9.2823473689       30.2068952059
  H        -2.5809710368       10.8840358618       26.4625112412
  H        -3.2284116407       11.2447024184       28.0227629456
  C        -4.2259030196        9.6669876298       27.0672171181
  C        -1.7052664322       15.6357437340       31.7787800209
  C        -1.7855494957       13.4748700142       32.9358210740
  H         5.4254668785       13.1666176449       18.6683318973
  H         6.1308373090       14.7111771142       19.5330274294
  C         7.4720864415       13.1841218062       19.0941634793
  H         3.1802814462        6.2718624813       16.2878474195
  C         3.5400172358        7.7929017885       14.9295645087
  H         3.4767539895        9.0473952150       29.4604549238
  H         2.2658317422        8.3429472926       30.4166698490
  C         3.4391039839        9.9901462885       31.3286728595
  H        -3.9744649931        8.8567759073       26.3508361172
  H        -4.7083158342        9.1772598195       27.9581861739
  C        -5.2560855917       10.6240899784       26.3126778109
  N        -1.5498155383       16.5024986016       30.6897768238
  C        -1.8990338242       16.2820647885       32.9856973693
  C        -2.1526309788       14.1624651441       34.1197589513
  H        -1.5202660860       12.4609989832       33.0175068924
  H         7.7730253878       13.4949128862       18.1030478731
  H         8.2577592044       13.4744587149       19.7728852614
  H         7.4787308676       12.1441238184       18.9405343481
  S         3.8617849191        9.4176747260       14.4916822606
  C         3.5417610652        6.8774992070       13.7868340383
  H         3.3476230544       11.0533511225       31.3092998821
  H         3.0619229096        9.7504467953       32.3249944928
  C         4.9912968274        9.6951066602       31.2539057013
  H        -4.8143082469       10.9983776248       25.3809945700
  H        -5.6935860969       11.5811404001       26.7419761677
  C        -6.5520387548        9.8006423994       25.9741262678
  S        -1.5852366807       18.0725265055       31.2992164946
  N        -1.9147492654       17.6480893015       32.8080341945
  C        -2.1620520942       15.6213084616       34.2020095396
  H        -2.4062421093       13.5665622821       34.9748208358
  C         4.2261417354        8.7739475998       12.8553740195
  N         4.0124939794        7.4231893891       12.6676280286
  O         3.1696726518        5.7043889596       13.8899305098
  H         5.4258794615       10.4411664180       31.8443082575
  H         5.4312131516        9.7693736452       30.2014242429
  C         5.3514150853        8.3147556333       31.8411930931
  H        -6.3055327010        8.9944823332       25.1993961036
  H        -6.9529116964        9.3066451323       26.8160419954
  C        -7.5424499553       10.7071289102       25.2437270734
  C        -2.4486711124       16.4493609071       35.3284905763
  S         4.6810045255        9.7365279931       11.4125845755
  C         4.1102265891        6.6330248611       11.3667009750
  H         6.1047651164        8.5502283762       32.6133043793
  H         4.5025252415        7.9289503351       32.3569901390
  C         5.5377979288        7.1413733214       30.8172200992
  H        -7.0486715889       11.2852654964       24.4145965357
  H        -7.7417528612       11.5659445717       25.8788699201
  C        -8.8124164084        9.9892654017       24.8870344585
  H        -2.1352527319       17.4504607467       35.2156041886
  C        -3.0166747301       16.2088060437       36.5471245684
  H         4.8218549597        7.1384367937       10.7050017437
  H         4.3933255995        5.5641756915       11.4982507332
  C         2.8322080981        6.8911794412       10.6001390959
  H         5.2629541420        7.6126113861       29.8218896209
  H         4.8188411539        6.3412806713       30.9884802130
  C         6.9351042755        6.5749363475       30.9662910693
  H        -9.2876556021       10.2875111403       23.9165711635
  H        -8.4680860201        8.9962398344       24.6791774987
  C        -9.8462877850        9.8868473995       25.9903053144
  S        -3.4980604925       14.7081668753       37.1584194563
  C        -3.0033731733       17.2923082421       37.5558411077
  H         2.6040790676        6.0952923983        9.9536294217
  H         2.0295903296        7.0617411653       11.2917477338
  H         2.9436877162        7.7326842825        9.8780400605
  H         7.0525754117        5.7643616969       30.1936960945
  H         7.1161989346        6.3142199625       31.9795875205
  H         7.7131139651        7.2806158376       30.7144465036
  H        -9.4901066288        9.1773420542       26.7492061522
  H       -10.7952036544        9.4939937995       25.5440234871
  H       -10.1107891649       10.8523659832       26.4200076531
  C        -3.7421718575       15.5353801420       38.6752692152
  N        -3.4711512056       16.8731260339       38.7251881049
  O        -2.7025516493       18.4684118373       37.1744094643
  S        -4.1555503567       14.7780318430       40.2116643720
  C        -3.4397886677       17.6925648131       39.9082296807
  H        -3.5320074822       18.6957140653       39.5263512392
  H        -4.2655490471       17.4697241581       40.5632547655
  C        -2.0526039722       17.6263571869       40.6911836185
  H        -1.7900251933       16.5856818620       40.8934868993
  H        -1.3426626308       18.2006664315       40.0388088840
  H        -2.1983377683       18.1764865507       41.6309209725
  H         7.7349692708       11.4181918811        3.7023029943
  C         7.8326102713       10.3432394506        3.7724393459
  H         6.9198655454        9.8043880846        3.8206321382
  C         8.7296894133        9.9855084258        4.9265065467
  C         8.4334429965        9.9832242891        2.3496718819
  C         8.0658076213       10.3608362307        6.3311837223
  H         9.1479699103        8.9686972720        4.8321486692
  H         9.5770543044       10.6272657924        4.7170954621
  H         8.6839586220       10.8958061995        1.8711003689
  H         7.6511042593        9.3900683268        1.8410858428
  H         9.3686240526        9.4885714646        2.5463219956
  C         7.2954886501        9.2602059908        6.9345321602
  H         8.9213651302       10.8313625757        6.9630348394
  H         7.4315749481       11.1840592577        6.0514832172
  C         6.6584671652        9.5921306403        8.2504265201
  H         7.9833141614        8.4599318940        7.2325741130
  H         6.5270442284        8.8709051712        6.2364761561
  C         5.4899407934       10.6224501237        8.0255080689
  H         7.3690071430       10.0016451431        8.8897595162
  H         6.2650940680        8.6730680765        8.7063053321
  C         4.1776947698        9.9606528872        7.5139097502
  H         5.2114312675       11.2120948044        8.8753913212
  H         5.7392386555       11.3679264030        7.2922159889
  C         2.8910556090       10.8406588726        7.3374659419
  H         3.9858809478        9.1479955290        8.1670876877
  H         4.3976920676        9.4751196365        6.5790848552
  C         3.2575853144       12.1400235685        6.6521277211
  C         2.5165762307       11.5411719518        8.5704997964
  C         1.7084328035       10.0712976296        6.6752768162
  C         3.0149130796       13.2857284276        7.4282537523
  C         3.6911467422       12.4819148351        5.3248139418
  C         2.5156744917       12.8677149604        8.6366030199
  C         2.0397123652       10.8723249353        9.7095125334
  H         2.1020273572        9.6497268814        5.7829697750
  H         1.4411691149        9.2523038129        7.3888167448
  C         0.4719435160       10.9161680706        6.3836871892
  S         3.4449233985       14.7327538372        6.5836806624
  C         3.8304769597       13.8533545879        5.1653886137
  H         3.7931599889       11.6931360764        4.6244322569
  C         2.0153858354       13.4768239935        9.7153006598
  H         2.1285501642        9.8196262698        9.6399104261
  C         1.5801108615       11.5010150125       10.8378119275
  H         0.7500235912       11.9246815097        5.9959794210
  H         0.0275089082       11.2336743641        7.3470027559
  C        -0.4958621426       10.2860919269        5.4389251441
  C         4.2795560069       14.5606689946        3.9401361514
  C         1.6171918846       12.8232717685       10.9163710095
  H         2.0338304518       14.5506999060        9.8005331766
  C         1.2074677990       11.0745671608       12.0518148896
  H        -1.3347024074       10.9947842745        5.3582567769
  H        -0.9980512861        9.3630837229        5.8198462271
  C         0.0715516662        9.8588958727        4.0245003135
  C         4.2467407216       15.9777949519        3.7311306630
  C         4.6828275794       13.7133326999        2.7777642560
  C         1.2063700175       13.4992917474       12.1905127327
  C         0.9279148265       12.1436789150       12.8888737732
  S         0.9206483799        9.5086554253       12.7108853608
  H         0.1464741490        8.8266928841        3.9436426665
  H         1.0134701622       10.2920399009        3.8327921342
  C        -0.7249798926       10.4249723757        2.8319046049
  N         3.9663899015       16.9446300588        4.6668656719
  C         4.5155347049       16.5365574840        2.4764483442
  C         4.9583000275       14.2947063514        1.5500442408
  H         4.7804350732       12.6213707101        2.8850288740
  C        -0.1288383608       14.2609040561       12.0447830652
  C         2.2481224414       14.3163200321       12.8876967430
  C         0.5421350825       11.6276484701       14.1554612577
  C         0.4859946185       10.2698979098       14.1787121052
  H        -1.7226497661       10.1855011186        2.9533619656
  H        -0.5542966048       11.4697853363        2.7396081003
  C        -0.1180909525        9.8995544383        1.5693181521
  S         4.0193058394       18.3771474022        3.9723190129
  N         4.3722399528       17.9411170522        2.4664616869
  C         4.9541959391       15.7780210060        1.3581136824
  H         5.2222397189       13.6136479678        0.7918186779
  H         0.0909461172       15.1335776595       11.4532426701
  H        -0.4094389271       14.6884236757       13.0125064301
  C        -1.3127923528       13.4511826473       11.4445515770
  H         2.7396357838       15.0631984381       12.2507784078
  H         1.6831051002       15.0022186148       13.5636646798
  C         3.4254594377       13.5589019566       13.4343986482
  H         0.3239274983       12.3056514502       14.9538375761
  C         0.1972355182        9.4594448474       15.3978063918
  H         0.2486776602        8.8952743140        1.7487568274
  H         0.6977069951       10.4889425051        1.3439447856
  C        -1.1572429937        9.8558990660        0.4103221422
  C         5.2451474275       16.4230727256        0.1143805541
  H        -0.9330993894       12.8772647491       10.6310005030
  H        -1.7580694861       12.7936183940       12.1203617127
  C        -2.3087878513       14.3988961072       10.8781805585
  H         3.9544902401       12.9694403538       12.6751162907
  H         3.0825279685       12.8710464361       14.1941614325
  C         4.4025749236       14.6348248635       13.9616311482
  C         0.0507231512        8.0610919982       15.4943107233
  C         0.0915310656       10.2086235794       16.7002326632
  H        -1.5710975698        8.7827503008        0.2955950399
  H        -2.1077690270       10.4584226639        0.5490882511
  C        -0.5844175703       10.1472521752       -0.9933167721
  H         5.1735669495       17.4858420074        0.1637673522
  C         5.4591098303       16.0596831007       -1.1828091934
  H        -1.8046550405       15.2213676029       10.4885461227
  H        -2.9972248284       14.6541349420       11.7239710808
  C        -3.2342087671       13.8356314516        9.7926477868
  H         4.8333874930       15.2406026798       13.1192931174
  H         3.9049001750       15.3573101163       14.6160896424
  C         5.6217468306       13.9678961930       14.6524635543
  N         0.1421011571        7.1544402155       14.4399200741
  C        -0.1825723806        7.4342265987       16.7056088780
  C        -0.1616647806        9.5649633200       17.9067290657
  H         0.3497563417       11.3024098071       16.7167688446
  H        -0.4061937452       11.1788353042       -1.0484794362
  H        -1.2384565219        9.8439475386       -1.8396631594
  H         0.3554144715        9.7496246829       -1.1436254459
  S         5.5545054443       14.4351181994       -1.6579359953
  C         5.5855263151       17.0522618138       -2.2086578380
  H        -3.6117311666       14.6594271422        9.2707330815
  H        -2.7023686861       13.2042194935        9.1111605039
  C        -4.4326705018       13.0718829528       10.4015963435
  H         6.1044153012       13.2602498345       13.9503433318
  H         5.1948597960       13.3444278916       15.4114781937
  C         6.5743985306       15.0174362790       15.2138732337
  S        -0.0424635194        5.6459229293       15.0549758245
  N        -0.4197092536        6.0380132091       16.5579769608
  C        -0.4806006562        8.1367302729       17.8893203754
  H        -0.1046394905       10.1660105093       18.7970788827
  C         5.9410825912       15.1609488728       -3.3050813181
  N         5.8438461950       16.4840527718       -3.3676441226
  O         5.5691559625       18.2720785254       -2.0440221161
  H        -3.9592402523       12.3457534404       11.0436868411
  H        -5.0758933582       13.6901364645       11.0328106680
  C        -5.3806070186       12.5133404985        9.3600673863
  H         6.0715721238       15.9517740880       15.4513115371
  H         7.0067892389       14.5555064367       16.1099780373
  C         7.6530815998       15.3656120207       14.1818555092
  C        -0.7826582609        7.4327347527       19.0805754856
  S         6.3626729289       14.2680878918       -4.7088708427
  C         6.0552617817       17.2592146469       -4.5971416390
  H        -4.8132805374       12.1456234437        8.4586661733
  H        -5.7694499596       11.5637258935        9.8315372131
  C        -6.5020031595       13.4527118500        8.9621954849
  H         7.3195257506       14.7893626670       13.3101477046
  H         8.6594519237       15.0665817377       14.3606431929
  C         7.5670310639       16.9162809766       13.8996617284
  H        -0.6623121564        6.3580612863       19.0403472682
  C        -1.3125077645        7.8270795315       20.2648202165
  H         6.7872259188       16.7496193865       -5.2040177665
  H         6.5974855323       18.1551327004       -4.3020767979
  C         4.7513237318       17.5341994402       -5.2662997114
  H        -6.7854937442       13.4928346330        7.8562535427
  H        -5.9730758357       14.3824670215        9.1956675151
  C        -7.7331817320       13.3385151749        9.8234351673
  H         7.8225277971       17.1947231615       12.8538976327
  H         6.5476414591       17.3625875817       13.9553316751
  C         8.4683602398       17.7800212255       14.8229273767
  S        -1.7515447431        9.4175669679       20.8507517015
  C        -1.3246781348        6.7532450578       21.3510788505
  H         4.8304801523       18.3724168094       -6.0032271122
  H         4.0350153091       17.7253920797       -4.5317517523
  H         4.5244492560       16.6126724925       -5.8115576365
  H        -7.3930002764       13.1288497737       10.7943008889
  H        -8.4306680404       14.1789334232        9.8891771127
  H        -8.4969289244       12.6523297372        9.3831656565
  H         8.1139671443       17.6372044018       15.8067330935
  H         9.5513996549       17.5026714151       14.7712046146
  H         8.5177330715       18.8473527254       14.6063033084
  C        -2.0786829010        8.6713205711       22.3911946197
  N        -1.8788389218        7.2656776785       22.4180064057
  O        -0.9473041402        5.5840126531       21.2531068028
  S        -2.7155679017        9.5342990346       23.8296867814
  C        -2.0349645245        6.5230074180       23.5954111564
  H        -2.3923505231        5.5277260514       23.4531434948
  H        -2.8056858369        6.9097190227       24.2760557296
  C        -0.7811859577        6.5051442055       24.5454813603
  H        -0.4788818838        5.4776492870       24.5786342163
  H        -1.0237670860        6.8710640829       25.4994696447
  H         0.0693103184        6.9922191345       24.1870451710
