352
i =
  H        -1.8815672358       14.7372203393       14.8678586981
  C        -2.5388159864       14.3497766796       15.6973634275
  H        -3.4464414741       14.9676295552       15.8102278050
  C        -1.6912434324       14.4229899049       16.9740669198
  C        -2.9106341783       12.9589903253       15.2756688970
  C        -2.5362407698       14.3052093310       18.2178558489
  H        -0.9029383126       13.6689240225       17.0060501368
  H        -1.2166305483       15.4556264363       16.9973657793
  H        -3.6774263897       12.9411561609       14.5248161059
  H        -2.0166479303       12.3979842957       14.9642018302
  H        -3.3648586004       12.5395661820       16.1723394869
  C        -1.5873032691       14.1155948408       19.3126331678
  H        -3.2146219081       13.4389099214       18.1127477984
  H        -3.1515281059       15.2241673716       18.3736650309
  C        -2.2344347956       13.9353384979       20.6697463808
  H        -0.9232935486       13.2591837304       19.1723204528
  H        -0.8467698215       14.9247998764       19.3454483751
  C        -1.4196033854       13.1913201744       21.7092427990
  H        -3.2167113851       13.3168993069       20.4902146477
  H        -2.6652346647       14.8352722103       20.9865165853
  C        -0.2745280262       14.1054814650       22.1826977789
  H        -1.9212829083       12.8358441355       22.6360686056
  H        -1.0133338593       12.2831842404       21.1677693007
  C         0.8399944970       13.3924108762       23.1074760536
  H         0.3055444607       14.4919170750       21.2754493402
  H        -0.6184559122       14.9887213381       22.6555075637
  C         1.2484995197       12.0281596015       22.4213874362
  C         0.2796223294       12.6991234382       24.3174310542
  C         2.1631084279       14.2461513170       23.3810852091
  C         0.9114938085       10.9176593457       23.2787962913
  C         1.7293055457       11.6140280733       21.1776925982
  C         0.3674507649       11.3724675441       24.4662088737
  C        -0.1419797601       13.3432390556       25.4737246202
  H         2.3732591254       15.0738340347       22.7349242674
  H         2.0484066231       14.7047028836       24.3543691630
  C         3.4136905477       13.4109416891       23.5037042894
  S         1.4207145753        9.4530996490       22.5677970825
  C         1.8435722469       10.2338209920       21.1296736929
  H         1.9459160239       12.3333020959       20.3703507753
  C        -0.1200496564       10.8103604656       25.6366719339
  H        -0.0332394582       14.4279491816       25.4484777650
  C        -0.6152386392       12.7332482889       26.6026780557
  H         3.6071894923       13.0920811802       22.4900790895
  H         3.1792736420       12.5305911817       24.1143369128
  C         4.6191468867       14.2618637992       24.0705723144
  C         2.4044203085        9.6040745014       19.8946405593
  C        -0.6200276301       11.4105428611       26.7669633975
  H        -0.2306384116        9.6666529274       25.6199115778
  C        -0.8952894865       13.1991664936       27.8623168753
  H         5.1766862773       13.5898559668       24.6602476163
  H         4.2460190445       15.0909746313       24.7114673620
  C         5.5420856049       14.7875330056       23.0295565452
  C         2.3430400425        8.1721057500       19.6551418765
  C         2.9983989952       10.3310492146       18.7345686699
  C        -1.0816329976       10.7376304713       28.0173741238
  C        -1.2260039558       12.1623264616       28.7286510405
  S        -1.2478412331       14.7117382823       28.5136282941
  H         6.1585840901       15.6325977306       23.1934134991
  H         4.7946022353       15.1930933184       22.4136966178
  C         6.3306655376       13.7812937855       22.2049394570
  N         1.8774226900        7.2607882106       20.5875734328
  C         2.6706240741        7.6087329220       18.4111888073
  C         3.2634176904        9.7320018070       17.5483958085
  H         3.0629147973       11.3908531760       18.7453960242
  C         0.0587431037        9.9389009025       28.6915951323
  C        -2.3709292880        9.8606636185       27.9597354993
  C        -1.5429653852       12.6685048725       29.9834594881
  C        -1.5792890701       14.0039642317       30.0464902637
  H         7.2991196257       13.8789606812       22.3889523308
  H         5.9917995977       12.8257309019       22.3455360152
  C         6.0799412971       14.0609295617       20.7021667508
  S         1.9079561112        5.8229329129       19.7967255944
  N         2.5439714558        6.2189251355       18.3790851985
  C         3.0392550026        8.3625695509       17.2725750398
  H         3.6131497216       10.5149758177       16.7384499267
  H         0.5054272977        9.2458317349       27.9218667285
  H        -0.2981012701        9.2539767495       29.5211990826
  C         1.1794967125       10.7620023170       29.3205223730
  H        -2.1072784922        8.9732565344       27.4381346552
  H        -2.6969312895        9.4917679858       28.9274657468
  C        -3.5752827182       10.5017106536       27.3111914830
  H        -1.6371007367       11.9926807879       30.7378468732
  C        -1.8994427172       14.7840970153       31.2616746777
  H         5.9252709033       15.1578245163       20.4721674813
  H         5.1581878876       13.5333485634       20.4366161569
  C         7.0934418209       13.4697740489       19.8198871552
  C         3.1769416009        7.7720385502       16.0102752240
  H         1.5326473905       11.5628653320       28.6109599228
  H         0.7462013585       11.2112113611       30.2162821071
  C         2.4071937242        9.8159850625       29.6369011924
  H        -3.3361209086       11.0813971706       26.4313555211
  H        -3.9909888524       11.3274101315       27.9312318561
  C        -4.7307971952        9.4314702709       26.9927991731
  C        -2.0286156082       16.1781242232       31.4143818909
  C        -1.9616595487       13.9668723086       32.4891741704
  H         7.9778159315       14.0803177952       19.8780426628
  H         7.1687874211       12.4660461176       20.0656939450
  C         6.5921450128       13.4526175440       18.4069016428
  H         3.0076451599        6.7368846339       15.9530765199
  C         3.4856093721        8.2254641141       14.7725924573
  H         2.7525835374        9.1555322486       28.8539225487
  H         2.0442336117        9.1489458132       30.4702407389
  C         3.6175097332       10.5794896728       30.1839053955
  H        -4.2361361715        8.5488134912       26.6114601911
  H        -5.2667140269        9.2104667157       27.9088328684
  C        -5.7444496485        9.9343702258       25.9392704673
  N        -1.8934938802       17.1052407924       30.3934459633
  C        -2.3554624136       16.7362970753       32.6353419650
  C        -2.2187315822       14.5656866636       33.7306255753
  H        -1.9460661211       13.0109242739       32.4291953523
  H         7.2208280690       12.7677753911       17.9155463013
  H         5.5696631790       12.9992832851       18.4135012401
  H         6.6590783383       14.3368678221       17.8138864385
  S         3.8935296004        9.7945870867       14.2348201120
  C         3.3835995189        7.2057295210       13.6911592292
  H         3.7639893708       11.5274396500       29.6213778496
  H         3.5038547180       10.6867435155       31.2966559059
  C         4.9271561595        9.7989401623       30.1058033247
  H        -5.7729183475        9.2867637034       25.0169154703
  H        -5.3817672271       10.8534389247       25.6425864139
  C        -7.1598876644       10.0015309680       26.5446102276
  S        -2.3521498681       18.5793222054       30.9865512345
  N        -2.6799211746       18.0958617044       32.5272397852
  C        -2.5559295611       15.9975937898       33.8512702300
  H        -2.2467466053       14.0109303873       34.5985488403
  C         3.8416049938        9.1233314100       12.6484401665
  N         3.7833188903        7.7938194720       12.4685233473
  O         3.0766339298        6.0072042055       13.9128018284
  H         5.5846634349       10.5940450228       30.5404613576
  H         5.2596616211        9.6884941021       29.0436638245
  C         4.9572212659        8.4832419312       30.7390232020
  H        -7.2794560213        9.0257658584       26.9724608896
  H        -7.0607605108       10.7674873884       27.3046879622
  C        -8.2615438794       10.1164602574       25.4220730510
  C        -2.8928427414       16.8092127745       35.0499740857
  S         4.3435550331        9.8919043939       11.1358963394
  C         3.6710210530        7.0053345305       11.2650520079
  H         4.4468096095        8.5805936373       31.7081624168
  H         4.3830137099        7.7924152969       30.1003387741
  C         6.2809034613        7.8665300033       30.9857562512
  H        -8.1589333880        9.4255200504       24.6280360316
  H        -8.0892262601       11.0351105841       24.9315263505
  C        -9.7321966410       10.1165199815       26.0002223287
  H        -2.5498718943       17.8416651908       35.0470789486
  C        -3.2549956730       16.3683011599       36.2488601172
  H         4.3541398449        7.3711423575       10.4519175455
  H         3.9520031691        6.0061036000       11.5600616146
  C         2.2726204371        6.9750491744       10.6490358856
  H         6.1213181543        6.8410396773       31.3522182668
  H         6.8349174088        8.4708005067       31.7005388913
  C         7.1462656413        7.9825849161       29.7269888758
  H       -10.4411967285       10.1242679619       25.2302697819
  H        -9.8175158419        9.1010998531       26.4030090984
  C        -9.9643141968       11.0777946268       27.1081027956
  S        -3.9003242171       14.7314272051       36.6746101827
  C        -3.3910272153       17.3528097211       37.3509236263
  H         2.2001089501        6.6170138523        9.6448248107
  H         1.7148710595        6.2698850895       11.2966884499
  H         1.6954672116        7.9400674533       10.5534839234
  H         8.1570594197        7.4880592626       29.7518326915
  H         7.2993799136        9.0747019946       29.5540538741
  H         6.6673644490        7.7157312600       28.7858228031
  H        -9.5214670366       10.6401597132       28.0294778049
  H       -10.9891545522       11.3488690760       27.2593391783
  H        -9.5537041478       11.9988307570       26.6789447771
  C        -4.1728710376       15.4117159734       38.3196282968
  N        -3.8614131365       16.7475751471       38.4369824545
  O        -3.0918325834       18.5901340790       37.3053026320
  S        -4.9486457024       14.5576180817       39.6177062786
  C        -3.8487064589       17.3807729868       39.7761324623
  H        -3.9439291423       18.4176019271       39.6685924601
  H        -4.5415105046       17.0135894939       40.5219204705
  C        -2.4320573316       17.3447709625       40.2423918020
  H        -1.9936139976       18.2226115712       40.6249292633
  H        -2.3303519431       16.6268321479       41.0828559390
  H        -1.7320467381       16.9013100540       39.4793146016
  H         7.8156103344       11.3941221683        3.3097264001
  C         8.2610414128       10.4689852525        3.6054204683
  H         7.3650712966        9.9576482043        3.5424188934
  C         8.8613616626       10.4721620605        5.0815687422
  C         9.2208758951       10.0604359155        2.5785305173
  C         7.8380158231       10.6803692135        6.1482572990
  H         9.3293592848        9.5024576672        5.3246348621
  H         9.7228155817       11.1965172165        5.1137184052
  H         9.8515751984        9.2384944350        2.8718478543
  H         9.9920928770       10.8826182991        2.3185994655
  H         8.5993648125        9.8202723204        1.7256969812
  C         6.9506143533        9.5459846034        6.4790643550
  H         8.2844382488       10.8901026353        7.1521831646
  H         7.2250076066       11.4841876232        5.7194449549
  C         6.1618651425        9.8462225631        7.7962870496
  H         7.6027814801        8.6823556936        6.5625145188
  H         6.2019822014        9.1863977481        5.7910136038
  C         4.9670928842       10.8028476740        7.7006713169
  H         6.8586557762       10.2456732850        8.4130963989
  H         5.7805522168        9.0553825418        8.2467696962
  C         3.7166466353       10.0705686369        7.2612128399
  H         4.8635300316       11.3462871719        8.6446230918
  H         5.3691272329       11.4416305648        6.9513120852
  C         2.5153143392       11.0039718204        6.9631901976
  H         3.3592006141        9.4240097371        8.0198522115
  H         3.9704930478        9.4092425797        6.4629620880
  C         2.9386064964       12.3345013657        6.2784737299
  C         2.1151771907       11.7599867717        8.1904174447
  C         1.4695578602       10.3096856548        6.1408507923
  C         2.7347948117       13.4870522697        7.0259780052
  C         3.5918298589       12.7379178828        5.0866155708
  C         2.2705374895       13.1109930229        8.2700541038
  C         1.6695093965       11.1463884329        9.3122552029
  H         1.7231363151        9.9995908368        5.0954579696
  H         1.2971813707        9.3785527495        6.7190316503
  C         0.1423494294       11.1517294954        5.9520764360
  S         3.1043516028       14.9537232694        6.3021167088
  C         3.6923896213       14.0838722807        4.9831946102
  H         3.9874287264       11.9337126078        4.3970758858
  C         1.7989668898       13.7050164181        9.3727171861
  H         1.6231775395       10.0647436966        9.2112918340
  C         1.3484111114       11.7443163720       10.5118936394
  H         0.2929172960       12.1707770500        5.6044464411
  H        -0.3288430874       11.2497756271        6.9861776837
  C        -0.8310465823       10.3859237746        4.9435746557
  C         4.1280859060       14.6716733463        3.7037356066
  C         1.3366832027       13.1050723754       10.6005867583
  H         1.8918827943       14.7741902746        9.5162895235
  C         1.0176339263       11.3132198384       11.7652810652
  H        -1.8352427214       10.7759009168        5.1578089094
  H        -0.8191637197        9.3482803968        5.1143336062
  C        -0.4089390518       10.7670004903        3.5036436413
  C         4.2265810048       16.1070531604        3.5219929733
  C         4.5797437594       13.7703411607        2.6606779228
  C         0.9081387974       13.7582209620       11.8599035731
  C         0.7296568288       12.4083759722       12.5878965924
  S         0.8777184755        9.8053290665       12.4996780069
  H         0.5618585290       11.1469936708        3.4556408896
  H        -1.0454342556       11.5563602837        3.3149135906
  C        -0.4155865770        9.6824884820        2.4189111656
  N         3.7441553529       17.0797391203        4.3453413552
  C         4.4908314924       16.6923208301        2.3118531171
  C         4.7909288223       14.3595231016        1.4570363134
  H         4.5162895978       12.6471723974        2.6487619979
  C        -0.2935352649       14.5187869363       11.6994407426
  C         2.0296886242       14.5591331010       12.4094800282
  C         0.4697397224       11.9610782011       13.9004914202
  C         0.3824467919       10.5857935176       13.9923181180
  H         0.4962754361        9.1131918521        2.6220078828
  H        -1.3793065202        9.0885806469        2.5394957407
  C        -0.2616343002       10.0024684878        0.9693287504
  S         4.1028777675       18.5463602825        3.8188617476
  N         4.4534750976       18.0570092955        2.3061189345
  C         4.8741126508       15.8300283855        1.2178711567
  H         4.7864746429       13.5596217843        0.7297423880
  H        -0.0680421100       15.3615085569       10.9748361881
  H        -0.3647302838       15.1161297724       12.5505524627
  C        -1.7045671996       13.8143253462       11.2718136700
  H         2.2434928047       15.3934164652       11.7506679902
  H         1.7019629251       15.0857907357       13.2578572802
  C         3.2712064922       13.7131045978       12.7420644769
  H         0.1335142346       12.6400504125       14.6730414249
  C        -0.0065893890        9.7959028193       15.2346639843
  H         0.1716813255        9.2179521553        0.3985472475
  H         0.5142102964       10.8097058768        0.7359023285
  C        -1.5660611645       10.2941166306        0.1751320915
  C         5.0474597647       16.3854849459       -0.1053705382
  H        -1.7570630457       13.6155062247       10.1990141887
  H        -1.7782555014       12.8322362084       11.7800689047
  C        -2.9250305485       14.6075595575       11.6257362966
  H         3.6236801008       13.1862263090       11.8212368702
  H         3.0426176400       12.9384739101       13.3835355758
  C         4.3957501511       14.5567499179       13.3991563291
  C        -0.0195661709        8.3667007027       15.4318102979
  C        -0.1378248450       10.5851712130       16.4885494673
  H        -2.2110449145        9.3637268703        0.2305673403
  H        -2.2449475297       11.0876008725        0.6345851971
  C        -1.0665271185       10.6514474763       -1.3513323669
  H         5.1362216876       17.5202189494       -0.1001719144
  C         5.2822586669       15.7253383259       -1.3222780131
  H        -2.9314651425       15.5545232013       11.0346312304
  H        -2.8494968749       14.7592230469       12.7249180128
  C        -4.2489171091       13.8821311244       11.1955162691
  H         4.8175072147       15.3277342363       12.7030373390
  H         3.8906965452       15.1412742946       14.2123380451
  C         5.4830069092       13.6971373483       14.0062650052
  N         0.2748485824        7.3718005557       14.4671323474
  C        -0.2906630352        7.7996603041       16.6507973730
  C        -0.4022397412       10.0015525937       17.7297255233
  H         0.0234853176       11.7168808655       16.4941010545
  H        -1.8911169626       10.6088059663       -2.0880313382
  H        -0.2265542313       10.1195880314       -1.7247378521
  H        -0.8185393511       11.7207784233       -1.2913868868
  S         5.3782794693       14.0831134061       -1.7622439901
  C         5.4885509572       16.6520233491       -2.4595709607
  H        -4.2269287976       12.8098825873       11.4377358490
  H        -5.2210441384       14.2936929574       11.6685487983
  C        -4.5691614095       14.1313286336        9.6635841426
  H         5.3463713687       12.6109123869       13.6485949980
  H         5.3481516589       13.5339123709       15.0409554215
  C         6.8495237610       14.2221294734       13.6288986281
  S         0.1367839479        5.8525259973       15.1488395647
  N        -0.3296384238        6.4385714962       16.6286713930
  C        -0.5726213507        8.5227369510       17.8193603081
  H        -0.4722497361       10.6626139569       18.6365887160
  C         5.6648960937       14.6303547389       -3.3858413660
  N         5.7782199512       15.9788823328       -3.5285011305
  O         5.3897267201       17.8790610576       -2.3389070457
  H        -4.8956657612       15.1695890010        9.5976770409
  H        -3.6840411178       14.1466353729        8.9752887645
  C        -5.4904134199       12.9724134314        9.1539175674
  H         7.4003670272       13.2936180290       13.8021298921
  H         6.9576376174       14.6182211508       12.6481969169
  C         7.4856787547       15.1869455730       14.6075295201
  C        -0.9242618155        7.8713165242       19.0518840638
  S         6.0112473246       13.6695673365       -4.8671620080
  C         6.0891992887       16.6599357484       -4.8438465033
  H        -5.0061329885       12.5970939915        8.2608696542
  H        -5.5348231487       12.1079680560        9.8231014025
  C        -6.8498523500       13.6233991632        8.8137528876
  H         8.5720723862       15.1130164953       14.5107420920
  H         7.1978439258       14.8839570911       15.6063334272
  C         7.1471046356       16.6294090517       14.2350074819
  H        -0.5969073158        6.8472345529       18.9762650251
  C        -1.4266518104        8.2180146479       20.3030211033
  H         6.8309803118       16.1808842013       -5.5095990952
  H         6.4589101107       17.6086104730       -4.5228468246
  C         4.7550328562       16.9757533241       -5.6270360666
  H        -7.2606073827       12.9181927200        8.1040755841
  H        -6.7856737399       14.5227019681        8.1994819397
  C        -7.8516544607       13.7366360655       10.0137726886
  H         7.2983021724       16.8084429267       13.1345964651
  H         6.0334774194       16.6165227301       14.3860924580
  C         7.8337904049       17.6672619032       15.1099613264
  S        -2.1724588639        9.7051109555       20.7060935746
  C        -1.4852580424        7.2036751984       21.3705845627
  H         4.5847136998       16.3623543336       -6.5493951097
  H         4.7918156324       18.0824674904       -5.8806514185
  H         3.8688551366       16.8442114682       -5.0873063536
  H        -8.1370083662       14.6954738161       10.1588730163
  H        -8.8445179421       13.3309164147        9.6440068220
  H        -7.5442621801       13.1287338077       10.9497841949
  H         8.5725881226       17.2557529544       15.7995365105
  H         8.4436609349       18.2914071975       14.4692754305
  H         7.1444489015       18.3424532452       15.7073847785
  C        -2.6386622920        8.8778041395       22.2168152101
  N        -2.1854843232        7.6266850708       22.4161694110
  O        -0.9877138650        6.0364477826       21.2519481975
  S        -3.4628308450        9.7697598864       23.4897025258
  C        -2.2125048918        6.9144398942       23.7135273140
  H        -2.4106730490        5.8494512913       23.4674597884
  H        -3.0925926250        7.1726785252       24.1913945747
  C        -0.8843352913        7.1126287442       24.5750353715
  H        -0.1952018427        7.7750312489       24.1595971823
  H        -0.3795135696        6.1582984853       24.8015013999
  H        -1.0721484322        7.5186402412       25.5357840428
