352
i =
  H        -2.5817605684       14.6050172461       15.6047525597
  C        -3.1750189232       13.8279544205       16.0643336591
  H        -4.0945269886       14.2105981508       16.2469512606
  C        -2.4067628813       13.1218128038       17.2530346833
  C        -3.5262926333       12.8005365160       14.8524032562
  C        -2.8520742345       13.5501174633       18.6391332616
  H        -2.4500768542       12.0243497208       17.3104103598
  H        -1.3450652478       13.3536531486       17.2625776178
  H        -4.5356140362       12.4835638153       15.0706909607
  H        -3.5894127197       13.2913332474       13.9590281977
  H        -2.7670720295       11.9904330879       14.8900650962
  C        -1.8616036937       13.0801921038       19.7172067158
  H        -3.7699068341       12.9102577714       18.7920899517
  H        -3.0316919409       14.6478898687       18.7256747353
  C        -2.3654877640       13.1698050195       21.1958943289
  H        -1.4355330098       11.9955184156       19.5434421916
  H        -0.8113972227       13.3988534976       19.7148482052
  C        -1.2380692129       12.6157641866       22.1040704744
  H        -3.2859509796       12.5882885894       21.3119660016
  H        -2.5869294299       14.2833286212       21.3393155394
  C        -0.0650577120       13.6147166851       22.4505084792
  H        -1.6463550335       12.1746486454       22.9237899789
  H        -0.8353450914       11.8985051576       21.4896019704
  C         1.0508034937       12.8657995461       23.1966882151
  H         0.4328798512       14.0747847220       21.6236527391
  H        -0.4089303849       14.4428657621       23.0360549942
  C         1.3043237090       11.5145580362       22.5096482703
  C         0.7034790881       12.1567670363       24.4790885695
  C         2.3931961432       13.5553376605       23.2890296270
  C         1.0528756310       10.4110325444       23.3227494730
  C         1.7724154195       11.0839128781       21.2109018087
  C         0.6787522562       10.8139409902       24.5814184414
  C         0.2945088505       12.7632190161       25.6168090177
  H         2.7438092175       13.7865594491       22.2659996653
  H         2.1543661854       14.4618479450       23.8682670335
  C         3.5699858631       12.9240142192       24.0117189519
  S         1.3449098353        8.8797266185       22.4074180843
  C         1.8802178693        9.7612125075       21.0253456760
  H         1.8930489038       11.7608060405       20.3898175040
  C         0.4109641095       10.2151495410       25.7721819918
  H         0.2147961176       13.8198299390       25.6838033013
  C        -0.0206213786       12.1765650665       26.8624339278
  H         3.8168856841       12.0609421615       23.5212323871
  H         3.4120097635       12.5117160982       25.0535392062
  C         4.8565943437       13.6752596312       23.9586854080
  C         2.2609748802        9.0458691929       19.7649511233
  C        -0.0225638316       10.8366665487       26.9848396114
  H         0.4585662770        9.1676287479       25.8126841961
  C        -0.4640850720       12.6914035807       28.0501796020
  H         5.5545798010       13.1368607539       24.6357766399
  H         4.5301200175       14.7094149375       24.2477466893
  C         5.5320907477       13.7256805794       22.5253585519
  C         2.2307972719        7.6752019810       19.3721851014
  C         2.8583537439       10.0154266242       18.6618668531
  C        -0.4649264150       10.1454727291       28.2114784764
  C        -0.7431117927       11.5702040769       28.8487698574
  S        -0.8853282658       14.2007471029       28.8244359498
  H         6.1393719859       14.6519382563       22.5651924298
  H         4.7613944664       14.0850031676       21.8147372381
  C         6.2441511261       12.4836895085       21.9586884770
  N         1.6188877006        6.6735641086       20.1949067152
  C         2.6156039755        7.2037197737       18.1325357003
  C         3.2348142466        9.4814326856       17.4324338834
  H         2.5891937257       11.1010877552       18.6659648024
  C         0.6204420297        9.3301980044       29.0005332090
  C        -1.9290746250        9.4173377527       28.0335923878
  C        -1.0695201767       11.9772438942       30.1609604707
  C        -1.2079468010       13.3272475503       30.2374130210
  H         7.0046743400       12.2925220413       22.6402014360
  H         5.4600213640       11.7680485138       21.8153746519
  C         6.9761042618       12.8251077284       20.6229466473
  S         1.7537515645        5.2955319496       19.4478226768
  N         2.4296835886        5.8217043211       18.0375719440
  C         3.0695704934        7.9686052100       17.1035504927
  H         3.5464182043       10.0749859269       16.5603825230
  H         1.0256106948        8.4167698315       28.4409701033
  H         0.2873203958        8.8292900031       29.8826609777
  C         1.7717245451       10.1935560381       29.3989398677
  H        -1.7353646548        8.5573446705       27.3918971896
  H        -2.1478058029        9.1865019777       29.0179121206
  C        -2.9985149459       10.4512085654       27.4610009952
  H        -1.3538546328       11.3622550243       30.8073138104
  C        -1.6075305319       14.2156081171       31.4630438365
  H         7.6483293104       12.1162029965       20.3901908823
  H         7.6843042425       13.6451486045       20.8587530202
  C         6.0378473193       13.0401245280       19.5011133155
  C         3.4519314451        7.4420174506       15.9068687698
  H         2.0302486222       10.9649708172       28.6538095923
  H         1.4295939204       10.8594289103       30.1767673514
  C         3.0232103771        9.4559023362       29.8140573028
  H        -2.8143817720       10.9136424649       26.5226169609
  H        -3.1678322591       11.1576159063       28.2206333718
  C        -4.3389218295        9.6544152579       27.4284439461
  C        -1.5788398580       15.6035274857       31.6761124169
  C        -1.8878202408       13.3961359232       32.7494010345
  H         5.2740914665       12.3140306475       19.4474781706
  H         5.4621996308       13.9437472982       19.7740809453
  C         6.7832740912       13.1662511098       18.1978972178
  H         3.5982907100        6.3851170805       15.9409648674
  C         3.6641755027        7.8976150256       14.6498090104
  H         3.8038359327        9.1708731383       29.0841285956
  H         2.6930028177        8.5525129699       30.2789534334
  C         3.6787531070       10.3265729351       30.9229416958
  H        -4.3138147622        8.7567526699       26.8046266885
  H        -4.4446928282        9.2289725029       28.4350325513
  C        -5.4169570279       10.6152103380       27.0004988649
  N        -1.2883003151       16.5120193019       30.6568391444
  C        -1.8384483304       16.2475742106       32.8329840382
  C        -2.2781441100       14.0947483887       33.9446194218
  H        -2.1093913590       12.3402309750       32.6131840037
  H         6.0654489320       13.2760678553       17.5008985727
  H         7.3679731118       14.0039999944       18.1131008558
  H         7.4665745317       12.3044823756       18.1332995471
  S         3.8628913969        9.5096755116       14.1223589215
  C         3.8892539886        6.8330837141       13.6089585850
  H         3.6006773379       11.3864190113       30.6225027085
  H         2.9410122553       10.1408995824       31.7257836400
  C         5.0104533311        9.8451697928       31.2932479413
  H        -5.2265892145       11.5176116595       26.5587882435
  H        -6.0836524045       10.7244951758       27.8058415422
  C        -6.4260727811        9.9510924096       25.8841019953
  S        -1.2284767308       17.9784191938       31.2607128363
  N        -1.6201711991       17.6413677743       32.8040649880
  C        -2.2099229867       15.6127535464       34.0205811679
  H        -2.4539223283       13.5131623585       34.9623222052
  C         4.1673099600        8.7272523180       12.6242701558
  N         4.0984669294        7.4412040262       12.5446082169
  O         3.7415159224        5.6551878438       13.8973860536
  H         5.3368807184       10.6117037889       31.9986287049
  H         5.7010228861        9.9342512421       30.4471800165
  C         5.1666200270        8.3781093674       31.6843842933
  H        -5.8203709181        9.5413746867       25.0549447238
  H        -6.8204532604        9.1154852910       26.4123700470
  C        -7.5688276070       10.7984432708       25.5106421505
  C        -2.4457991763       16.3844620360       35.1470376706
  S         4.8233915453        9.8023445340       11.2978455989
  C         4.1791194754        6.7095332696       11.3166879768
  H         5.6863609975        8.4047933177       32.6384584733
  H         4.0742400251        8.1380705599       31.9638811136
  C         5.8230610349        7.5433034754       30.5990516748
  H        -7.3496100646       11.2356569067       24.5880522015
  H        -8.0000235652       11.4482659540       26.2771467446
  C        -8.8086041105        9.9427984314       25.1532827191
  H        -2.3465234901       17.4575274740       34.9944288924
  C        -2.8974696672       15.9897180453       36.3763898953
  H         4.7422089868        7.0105453596       10.4164235395
  H         4.7571458781        5.8067311049       11.4269118235
  C         2.7386532434        6.2638856208       10.8639806621
  H         6.8343886223        7.9094303901       30.3739138093
  H         5.3712125995        7.3234625051       29.5780607866
  C         6.1969694624        6.1345338520       31.1412742760
  H        -9.2987007428       10.4373826855       24.3450048313
  H        -8.6146848593        9.0096085014       24.8780305378
  C        -9.7764922260        9.9374358580       26.2516940857
  S        -3.1535410278       14.3436156491       37.0268414583
  C        -3.0485888242       16.9614506787       37.3989387414
  H         2.8653051848        5.2246463762       10.3955309278
  H         1.9649703667        6.2904244896       11.6218698625
  H         2.4350983661        6.9765540221       10.0987423831
  H         5.2692159342        5.4632559311       30.9048468800
  H         6.5407544976        6.0840319461       32.2475111556
  H         7.0300026706        5.8797732476       30.3672442618
  H        -9.4753475077        9.4294125615       27.1251114639
  H       -10.8338193846        9.6279675445       25.9556593003
  H        -9.9226105264       10.9535546386       26.6946918557
  C        -3.9155321478       15.1169277741       38.3503025321
  N        -3.6730969971       16.4136542230       38.5007819624
  O        -2.7970586576       18.1958728172       37.2910678832
  S        -4.7119664580       14.2475880364       39.6494015936
  C        -3.9175052929       17.1713573519       39.6842527638
  H        -4.2292731413       18.1170811607       39.2752066102
  H        -4.7011615221       16.8013101533       40.3370041621
  C        -2.5212884411       17.3250185506       40.5371790893
  H        -2.6270425766       16.6284504663       41.4225511841
  H        -1.5136560139       17.4577189051       39.9269448040
  H        -2.5887000176       18.2674113877       41.0795134844
  H         7.4119987786       11.4620607361        3.0571663334
  C         7.9375744342       10.4417590545        3.1472213622
  H         7.0252683458        9.7501566593        3.1119552328
  C         8.7811392555       10.4887935218        4.3292401968
  C         8.7973534454       10.3455351713        1.8855416599
  C         7.8134563482       10.5566181519        5.5579010243
  H         9.5722349326        9.6266719051        4.4645114500
  H         9.4006599590       11.4641680632        4.2318521257
  H         8.0682618642       10.2448457249        1.1021096138
  H         9.3493777940        9.4016313571        2.1317227101
  H         9.4487846209       11.1857624962        1.6646196478
  C         7.1414177029        9.3049741064        5.9779450931
  H         8.4186255788       10.9438469861        6.3574225606
  H         7.1668080417       11.4138428779        5.4544526352
  C         6.7118738184        9.4143586519        7.4548692968
  H         7.8987455928        8.5327361766        5.8703235118
  H         6.3085165905        9.0077119156        5.3163123755
  C         5.4475586935       10.4192246960        7.6031968104
  H         7.4655481093        9.7800880297        8.0601590836
  H         6.5237321559        8.5860822270        8.0701851254
  C         4.2592815244        9.7378533014        7.2272241499
  H         5.4684486222       10.6481106186        8.7064754289
  H         5.4368232655       11.3937848580        7.0630148187
  C         2.9964980150       10.6791114235        7.0750651135
  H         4.1026335947        8.9670565939        8.0590445619
  H         4.4143890264        9.2202537451        6.3589932400
  C         3.2493007694       12.0502917517        6.4830941547
  C         2.4797568838       11.4099616751        8.2762181213
  C         1.8023330346       10.0307673615        6.2819870152
  C         2.9888272506       13.1742155124        7.2204101265
  C         3.9131539232       12.4060785624        5.3495412681
  C         2.4398664787       12.7669684261        8.4116717588
  C         2.2013629420       10.8156938622        9.4918303047
  H         2.0645230215        9.6831971710        5.3070023088
  H         1.6357014078        8.9900901432        6.4950355085
  C         0.6115935041       10.9431287214        6.0053665345
  S         3.1639774693       14.7180193364        6.4376622340
  C         3.8215007541       13.7519965827        5.0795574480
  H         4.1701600167       11.6221816268        4.6337978146
  C         1.9467195392       13.3387710649        9.5596359096
  H         2.3448173431        9.8019117896        9.5393702009
  C         1.6657387692       11.4076678417       10.6323650289
  H         0.8021334161       11.9818340907        5.8317441605
  H        -0.0701752802       10.9870909176        6.8452997184
  C        -0.3355583649       10.4371436796        4.9596627336
  C         4.3151619949       14.4689888634        3.8561634260
  C         1.4900832044       12.7113141166       10.7236335384
  H         1.9692217152       14.3889407322        9.6567980703
  C         1.0958189790       10.9548087056       11.8336814486
  H        -1.4150754319       10.6975924993        5.3522735824
  H        -0.2637978383        9.3981219003        4.9159000649
  C        -0.1392148414       10.8971720615        3.4900254445
  C         4.2332803210       15.7641461893        3.4850068368
  C         4.8226072766       13.5541906820        2.7649864119
  C         0.8867162477       13.3707166378       11.9804270284
  C         0.7181820811       12.0155672638       12.6214015648
  S         0.8545997234        9.4003869766       12.5755252850
  H         0.8453943937       11.2297790414        3.2598627921
  H        -0.8920864092       11.7006237703        3.3471283871
  C        -0.6243015567        9.8452373282        2.4139110337
  N         3.8332060631       16.7958103155        4.2919085611
  C         4.5735103194       16.2285921937        2.1833249598
  C         5.1454598616       13.9119340807        1.4287390806
  H         4.8862917411       12.5227565143        2.8461423560
  C        -0.3675120980       14.2130354844       11.6419270293
  C         2.0000964550       14.1748085295       12.6793132909
  C         0.2657895500       11.5846610106       13.8625721468
  C         0.2825233799       10.2230473295       13.9693600800
  H        -0.3718045245        8.7995950479        2.7760700154
  H        -1.6979258658        9.9518145655        2.2943023084
  C         0.0590142805        9.9159764506        1.0618095940
  S         3.8675255430       18.2030265119        3.4128918848
  N         4.4554526881       17.6182787310        2.0267092954
  C         4.9434450451       15.4425262767        1.0844009261
  H         5.3310170509       13.1644288569        0.6063020063
  H        -0.0621229335       15.0891225986       11.1077855931
  H        -0.8313031112       14.7850693535       12.5001293023
  C        -1.5112611120       13.3973153071       10.9275857951
  H         2.4338961451       14.8774682911       11.8080124518
  H         1.6876703890       14.8107906613       13.5738201138
  C         3.1291406467       13.2465043689       13.2710308277
  H        -0.0043703059       12.2638700382       14.5959952620
  C        -0.0274699344        9.4143625535       15.2307592528
  H         1.1560031456       10.0215698028        1.2389044179
  H        -0.1357494935       10.8920611930        0.7467405648
  C        -0.3017413419        8.8671073385        0.0970900867
  C         5.1441652611       16.0323960911       -0.1953377475
  H        -1.2261157535       13.0397986904        9.9450718031
  H        -1.6965022440       12.5730827638       11.4876650133
  C        -2.7885171896       14.2188712629       10.7862000447
  H         3.3840094568       12.6409462158       12.3724079897
  H         2.7895302998       12.4601276162       13.9362597732
  C         4.2549311340       14.0847562814       13.7724228381
  C        -0.0578751668        8.0549585640       15.3769620695
  C        -0.2961369187       10.2362535579       16.4635400120
  H         0.6748459689        8.3310497133       -0.2370441712
  H        -1.0696393484        8.0664098234        0.5335738214
  C        -0.7878298330        9.5095325330       -1.2249369811
  H         4.9495184127       17.1192956192       -0.1542917455
  C         5.4458239486       15.5709922936       -1.4340397157
  H        -2.5768102091       15.0011748912       10.0345952997
  H        -3.0918064038       14.8649079394       11.5830901386
  C        -3.9919843651       13.3609517794       10.3240550733
  H         4.4612891430       14.9092214428       13.0988366485
  H         4.0096652323       14.4156171637       14.8206733040
  C         5.5635692118       13.3522054699       13.9980164050
  N         0.1955301928        7.2018473627       14.4063513890
  C        -0.4283757480        7.4586328809       16.5568475977
  C        -0.5369239566        9.6637767753       17.6816287671
  H        -0.3019732986       11.3283458234       16.4510573408
  H        -1.6138052105       10.2265249173       -0.8841683352
  H        -1.0276954805        8.7897233147       -2.0684417160
  H        -0.0439825557       10.1235475492       -1.7787811307
  S         5.6628730631       14.0047383731       -1.9398511735
  C         5.5240229422       16.6044788775       -2.5365183225
  H        -3.7135290283       12.5521363796        9.7598000140
  H        -4.5713050632       12.9896608502       11.0749431619
  C        -4.8295046365       14.1131574205        9.2659222198
  H         5.4190037981       12.2991233188       13.5571568931
  H         5.6365447307       13.2102741761       15.0220362371
  C         6.8103156787       14.0099145053       13.4687624436
  S         0.1681167892        5.6595479625       15.0321692472
  N        -0.3851418849        6.0613337270       16.5149436885
  C        -0.7190740801        8.1112381810       17.7730824243
  H        -0.8874605267       10.2193733999       18.6155120898
  C         5.9181949010       14.5668130013       -3.5790047138
  N         5.8462898597       15.9618257147       -3.6780734744
  O         5.3830027554       17.7753721762       -2.4484506147
  H        -5.1749760706       15.0340743401        9.7276420532
  H        -4.1724513449       14.4756672897        8.4887928838
  C        -5.9873426062       13.2487484989        8.9026902490
  H         7.5661413485       13.3365158244       13.9325608636
  H         6.8787683344       14.1822104392       12.3263193992
  C         7.0525218726       15.3852244458       14.1981095080
  C        -1.1427725579        7.4441372405       18.9435359395
  S         6.3620408173       13.6078089656       -4.9186683023
  C         5.8612064353       16.6843082549       -4.9313544160
  H        -5.9615749036       13.0910618377        7.8251940089
  H        -6.1694618799       12.3145686943        9.4607612984
  C        -7.3937896772       14.0200386926        8.9657786382
  H         7.0475930534       15.2572333936       15.2893502386
  H         6.2030430944       16.1146788121       14.0266082091
  C         8.2658939207       16.1078547985       13.8725449480
  H        -0.9212793092        6.4713071116       18.9800685888
  C        -1.7253302311        7.8849070235       20.0803749494
  H         6.8227552441       16.1528773467       -5.3756751310
  H         6.0931398959       17.6608025880       -4.6551647274
  C         4.5209852472       16.8134712224       -5.6372105040
  H        -7.9085191948       13.9862384212        7.9390317336
  H        -7.2539153571       15.1017195595        9.1293393399
  C        -8.2447153592       13.7343900802       10.1695559699
  H         9.2746619020       15.6371295274       14.2109857929
  H         8.3916295275       16.1359117975       12.8308501230
  C         8.2166787748       17.5110878600       14.6233244413
  S        -2.3163588957        9.5030543194       20.4799730484
  C        -1.8100290409        6.9645803617       21.2814920390
  H         3.7386843971       16.6918903636       -4.9951731095
  H         4.4673925406       16.0196193026       -6.3628738778
  H         4.3971430452       17.7266001286       -6.1458459537
  H        -7.8556402456       13.9371414817       11.2247736997
  H        -9.2175598273       14.1506462739       10.1575129446
  H        -8.3954642771       12.7135354500       10.2439796307
  H         7.9455694325       17.4273246786       15.7538066405
  H         9.0861736072       18.1378657838       14.3685770527
  H         7.2209636551       17.9764697640       14.2933973200
  C        -2.7304149481        8.8994268450       22.1105432526
  N        -2.3328144639        7.6111027554       22.3568333719
  O        -1.4686674495        5.7646856450       21.2584175282
  S        -3.3897817913        9.7474741135       23.4454919945
  C        -2.5826082727        6.9209302885       23.6269576303
  H        -2.8117102919        5.9824232163       23.1954468481
  H        -3.5040843627        7.2302886261       24.0302707907
  C        -1.3552845846        7.1208841750       24.5685980665
  H        -0.9130926685        6.2185640288       24.8755143833
  H        -1.6713112360        7.7023296513       25.3825001026
  H        -0.6920341882        7.7757220816       24.0325257308
