352
i =
  H        -3.9261351376       14.8672101293       16.3685734197
  C        -3.3494710150       13.9490661797       16.5816497909
  H        -4.0965569741       13.1350025267       16.7514087393
  C        -2.4053372363       13.9483741693       17.7150557050
  C        -2.7253992900       13.5075837917       15.3227978537
  C        -3.0243896810       13.6987355619       19.0521412363
  H        -1.6003651785       13.1770140883       17.5425106669
  H        -1.9839717245       14.9109884904       17.7784245993
  H        -3.2320408529       13.9123146801       14.4263954792
  H        -1.7221980225       13.8790107113       15.2646455879
  H        -2.6750802434       12.3830104956       15.1963050409
  C        -1.8766008795       13.7375268357       20.1249889794
  H        -3.4630054144       12.6444758834       19.0156958412
  H        -3.8168465019       14.3770016445       19.2646837994
  C        -2.3305377820       13.7119499820       21.5438958831
  H        -1.0487674050       12.9930987864       19.9304071170
  H        -1.4244669854       14.7000210672       20.0460547146
  C        -1.4074013440       13.0678526674       22.5676742049
  H        -3.2894184379       13.1040912955       21.6837250608
  H        -2.6015145660       14.8022869035       21.7949292353
  C        -0.0460990848       13.8626069859       22.7347364542
  H        -1.8060435972       12.8316297643       23.5052846516
  H        -1.0992748753       12.0923372286       22.2326754243
  C         1.1364566717       13.0184940561       23.3608600037
  H         0.2940876997       14.3831919244       21.9241009792
  H        -0.1422922516       14.6296537268       23.4708817240
  C         1.3174693919       11.6383259502       22.6501255009
  C         0.6085178677       12.2738205612       24.5911852180
  C         2.4807426080       13.7367906568       23.2367421718
  C         1.0413366876       10.5628539203       23.4602297614
  C         1.7619134994       11.3396566481       21.4022181568
  C         0.6640113719       10.9523236921       24.7034444920
  C         0.0458982385       12.9094113557       25.6921802350
  H         2.7452590094       13.8452376084       22.2436436269
  H         2.4518278341       14.7056542725       23.7204662069
  C         3.5562664099       13.0506912919       24.0658509383
  S         1.1950953082        9.0965674402       22.5091172523
  C         1.8976660305       10.0236455368       21.1973364774
  H         2.1286779816       12.1871059101       20.8169193997
  C         0.2678939509       10.3430039595       25.8233816854
  H        -0.0741064202       14.0205650129       25.6650479406
  C        -0.3552017311       12.2520372334       26.8469738808
  H         3.8505064399       12.1014874644       23.7455267362
  H         3.3321489250       12.9263682753       25.1484269210
  C         4.8368090668       13.9889706761       24.1520140321
  C         2.3901616001        9.3560647816       19.9941375024
  C        -0.1932637987       10.9558890633       26.9498711621
  H         0.3444552313        9.3114724133       25.8364172867
  C        -0.6711356775       12.6514612289       28.1023090295
  H         5.6511857033       13.4711479525       24.7252045060
  H         4.5316233205       14.9196445123       24.6727006421
  C         5.3348097310       14.4512430452       22.7636770041
  C         2.6228612119        7.9744420300       19.8751796568
  C         2.8570796089       10.1855426813       18.8604116851
  C        -0.6154103894       10.2895121660       28.2370304313
  C        -0.8801226146       11.6087001039       28.9046632802
  S        -0.8580438503       14.1266701811       28.7390371068
  H         5.9832311570       15.2504223374       23.0077496618
  H         4.5013430133       14.7521755074       22.1001364406
  C         6.0844059807       13.3755969984       22.0194899259
  N         2.2915123580        7.0131588407       20.8762005647
  C         2.8479181041        7.3587869866       18.6172591496
  C         3.2761119439        9.5651417501       17.6837071919
  H         2.8194732869       11.3200283597       18.9484491413
  C         0.5438256705        9.5456809165       28.8222203357
  C        -1.9032375629        9.4788300321       28.0686155461
  C        -1.2174462575       12.0078282337       30.1773747940
  C        -1.2373874198       13.3707323965       30.2251654295
  H         6.8863963013       13.0278218013       22.6272678233
  H         5.4417022301       12.5144237362       21.9822009532
  C         6.3381941572       13.8997424431       20.6148648704
  S         2.4602193262        5.5045812861       20.2366286507
  N         2.6121153162        5.9439105661       18.6976504367
  C         3.2393687725        8.0989637883       17.4845913739
  H         3.5420088267       10.3203477654       16.9748322643
  H         1.0333424360        8.8211424465       28.1875157066
  H         0.2050863598        9.0437780952       29.6437341824
  C         1.7745024311       10.3117327009       29.3631204567
  H        -1.6003592048        8.7364791483       27.3663675112
  H        -2.2676487559        8.9490083818       28.9790734932
  C        -3.0861927662       10.3423322692       27.5641599160
  H        -1.5891723301       11.3269242209       30.9742017400
  C        -1.5928332670       14.1857525410       31.4559607649
  H         6.5362854419       14.9888512658       20.7926710816
  H         5.4467592338       13.9067351975       19.9355087526
  C         7.5130899870       13.1998562766       19.9540222522
  C         3.3984391755        7.4061160583       16.2497972683
  H         2.0706659321       10.8644972144       28.4198599496
  H         1.5127331574       10.9696834524       30.2005097709
  C         3.0028624593        9.4674291553       29.6853345969
  H        -2.8377932243       10.8824675795       26.6102846323
  H        -3.3711010385       11.0862035735       28.2272917882
  C        -4.3309330428        9.5164208800       27.2742969712
  C        -1.7271747701       15.5845664136       31.5163719619
  C        -1.6836080440       13.4209469274       32.8024693419
  H         8.3314747020       13.7312640550       20.3779994699
  H         7.4954619775       12.2085150049       20.3740451973
  C         7.5037794696       13.4004243619       18.4310921509
  H         3.6464460240        6.4315259267       16.3480347943
  C         3.5855612121        7.7860074387       14.9608548558
  H         3.1739684691        8.6143162420       28.9848515872
  H         2.8590655545        8.9192261434       30.5691951361
  C         4.0700902728       10.4325414749       30.2187943918
  H        -4.3332824688        8.7990005403       26.4656553686
  H        -4.3298104707        8.9217944639       28.2223717665
  C        -5.5850742068       10.3057061201       27.2131023262
  N        -1.4979264666       16.5475453873       30.4489873018
  C        -2.0107032078       16.2393029732       32.7176243402
  C        -1.9774024003       14.1189772835       33.9346093912
  H        -1.6744108872       12.3744933783       32.8976194076
  H         6.4015759439       13.1656832062       18.0460217529
  H         7.6954069687       14.3322619041       17.8808200217
  H         8.0410273258       12.6663991469       17.8554935489
  S         4.0144946440        9.2946815115       14.3960512950
  C         3.6617575750        6.6948196378       13.9904915923
  H         4.2417005544       11.0890220556       29.3692481975
  H         3.7704381904       10.9133063297       31.1445798257
  C         5.4573077748        9.8864465982       30.4942870577
  H        -5.3795156371       11.2758455367       26.5792255524
  H        -6.0448495386       10.7093645958       28.2041904030
  C        -6.6690626214        9.6160227726       26.4512345748
  S        -1.7598066056       18.0005300208       31.0442719476
  N        -2.1647663351       17.5994183588       32.5413319863
  C        -2.2020773054       15.6186532280       33.9504516374
  H        -2.0676505015       13.5839482105       34.8103791205
  C         4.4030469999        8.5143375847       12.8532241237
  N         4.0907547841        7.2134142759       12.8184832379
  O         3.1428314066        5.6546041771       14.1827000397
  H         6.1102155301       10.7357818112       30.8203247173
  H         5.7597120696        9.5908496327       29.4822309407
  C         5.5197668915        8.8365997787       31.5513576896
  H        -6.2534558260        9.0216512594       25.6987681784
  H        -7.3965746440        9.1623696281       27.1483413784
  C        -7.4131587243       10.7077268680       25.7779077788
  C        -2.4619905162       16.3787332111       35.1261527813
  S         4.5557671538        9.2390497189       11.2637047923
  C         4.0019536195        6.4650067840       11.5457862645
  H         6.3419398998        9.1410917780       32.2620632386
  H         4.6230148640        8.6634486206       32.1472844378
  C         5.8121836293        7.6041905291       30.7128281624
  H        -6.7815472085       11.1129571283       24.9795714725
  H        -7.5982542717       11.4389534022       26.5570430158
  C        -8.7325067359       10.2488871878       25.1404988482
  H        -2.4097441308       17.4536525826       34.9380127659
  C        -2.9345845461       16.0086311389       36.3947010512
  H         4.7824656514        6.8132860132       10.8737019134
  H         4.2930128623        5.5007601257       11.6625086554
  C         2.6492027226        6.5632010222       10.8313030624
  H         6.7369658467        7.8828750132       30.2084324748
  H         5.1390736078        7.4127233027       29.8127964763
  C         6.1828180476        6.4052639427       31.5137407859
  H        -8.9194053182       10.8217405313       24.2479669187
  H        -8.5013863277        9.2859496837       24.7165423414
  C        -9.9530223520       10.3238115659       26.1854728816
  S        -3.3466428248       14.4834663227       37.0491911057
  C        -3.2599539478       17.1246620484       37.3006756595
  H         1.7546624156        6.4487859739       11.4598865758
  H         2.5379142789        7.4816292386       10.2645548738
  H         2.5986331497        5.5713363586       10.2552742337
  H         6.3317698879        5.4642287139       31.0137402199
  H         5.4145712805        6.2022476789       32.1987005085
  H         6.9898998775        6.6725802323       32.1627460047
  H       -10.8945292563        9.8218759598       25.8194208621
  H       -10.3222719633       11.3025765267       26.4328071251
  H        -9.7344846639       10.0222331045       27.2411172381
  C        -3.9520695605       15.3484370361       38.4696768960
  N        -3.7736768920       16.6594762054       38.4470461941
  O        -3.0375837837       18.3189917463       37.0496329692
  S        -4.7606063038       14.5335255747       39.8643763747
  C        -4.0282759149       17.4730402629       39.6640994795
  H        -4.4208720786       18.4352493180       39.3680930729
  H        -4.8902337996       17.1304715106       40.2127092267
  C        -2.8239480798       17.8401338709       40.4575228242
  H        -3.2443787680       17.7548350940       41.4672037828
  H        -1.9734596942       17.0865596044       40.5345866389
  H        -2.3980425548       18.7500119679       40.2137820342
  H        10.2041296780       10.1098308713        3.9205239516
  C         9.3886816151       10.7317634631        3.4710882438
  H         9.6533299611       11.8080600676        3.3538505826
  C         7.9608633745       10.4877236517        4.0624161342
  C         9.4598032254       10.2518716320        2.0891813289
  C         8.0866201323       10.4504060400        5.6014393209
  H         7.3168389374       11.2878353074        3.8538231810
  H         7.3645385141        9.6198721619        3.6956442926
  H         8.8664103573        9.4330787556        1.8885676015
  H        10.4451443185        9.9381458865        1.9921121373
  H         9.3267714010       11.1737650206        1.4737606555
  C         7.0208878816        9.4018844739        6.2871597313
  H         9.1290982829       10.2194107676        5.8574128408
  H         7.8666386162       11.3805562204        6.0292536144
  C         6.4679674959        9.7894783049        7.6909058406
  H         7.4638471410        8.4471593198        6.3632100349
  H         6.1348971822        9.1362709845        5.8138213319
  C         5.3899675482       10.8195632647        7.7364490711
  H         7.3532608976       10.0543855144        8.2792589704
  H         6.0873444428        8.8891975684        8.1846629695
  C         4.0543611474       10.1586411491        7.3946519244
  H         5.4176959726       11.1635471459        8.7191141345
  H         5.6604341448       11.6105678797        7.0718892101
  C         2.8563804124       11.0544617029        7.2828146555
  H         3.8282065942        9.4533354269        8.1932279233
  H         4.2333193655        9.4626828683        6.5568060191
  C         3.2389349568       12.3404324332        6.6143701145
  C         2.3793657105       11.6980480284        8.5051503992
  C         1.6796859648       10.3543929990        6.5152378796
  C         2.9927096611       13.4399684998        7.4634258786
  C         3.8095752690       12.7719201672        5.3981549000
  C         2.4262483655       13.0231200804        8.6385432817
  C         1.9278249644       11.0929767834        9.6493135119
  H         1.9960716953        9.9705018532        5.4713216592
  H         1.4082923051        9.5785159576        7.1804212139
  C         0.4983732621       11.2305485820        6.3140483639
  S         3.3534630672       14.9047785873        6.7313418652
  C         3.9432084603       14.1230922733        5.2799867814
  H         4.1936796979       11.8543370232        4.8028004527
  C         2.1099836001       13.6546753826        9.7757345985
  H         1.8347503017        9.9787439248        9.6819330867
  C         1.6535642227       11.7362592183       10.8572955132
  H         0.7736200879       12.1989230794        5.9284848329
  H        -0.0263811858       11.5418708909        7.2490440652
  C        -0.4673077831       10.6747958106        5.3564618535
  C         4.3880539519       14.7329708053        3.9995804484
  C         1.6794293445       13.0895505619       10.9853048917
  H         2.0046445851       14.6921723026        9.7085537157
  C         1.2660772315       11.3075227839       12.0947956081
  H        -1.4231638256       11.1916039186        5.5175132751
  H        -0.6460817331        9.6091094920        5.3926566586
  C        -0.0008600466       11.0404896799        3.9256691781
  C         4.3290527157       16.0698889453        3.7130985614
  C         4.9349842979       13.8394161279        2.9013366494
  C         1.3385836057       13.8179146011       12.3029606671
  C         1.1186149174       12.4346086463       12.9357009315
  S         0.9908236360        9.7639895511       12.8376909494
  H         1.1012968878       11.0733214437        3.9580744362
  H        -0.3860459646       12.0711270045        3.5991684961
  C        -0.5854329712       10.0905675321        2.8348323549
  N         3.8457942229       17.0080059435        4.5899108861
  C         4.5433689450       16.5653858366        2.4664442556
  C         4.8794912180       14.2051488838        1.5493925927
  H         5.1133909531       12.8198785202        3.1954620171
  C         0.0266682415       14.5801577417       12.1072859504
  C         2.5139086585       14.5168228977       12.9146497161
  C         0.6553730987       12.0119986741       14.1650657430
  C         0.5681519045       10.6220791456       14.3098277145
  H        -0.1813884561        9.0908653973        2.9488768311
  H        -1.6497576060        9.9568501496        2.9584018847
  C        -0.3042149413       10.5852706371        1.4116906733
  S         3.7133431101       18.4276195235        3.8213252027
  N         4.2114102941       17.9425309302        2.3870357733
  C         4.7282735590       15.6987162228        1.3250726114
  H         5.2425877945       13.5077171315        0.9119214702
  H         0.2650238749       15.2999106939       11.3546681345
  H        -0.2546780300       14.9358226245       13.0594802491
  C        -1.0934934579       13.6939795329       11.4826127319
  H         2.9937381399       15.2516698541       12.2673789624
  H         2.0907130489       15.0163052786       13.8044226452
  C         3.7963933442       13.5810429374       13.1541623949
  H         0.4122447529       12.8095298391       14.8630313741
  C         0.1623470881        9.9232138874       15.6047718108
  H         0.7809013012       10.3960693647        1.1350573779
  H        -0.3968681632       11.6689816094        1.3928081035
  C        -1.1764002855        9.8657911317        0.3422547626
  C         4.8744618206       16.3454479573        0.0541004008
  H        -0.7879904331       13.3992207966       10.4446857904
  H        -1.2635587108       12.8330276293       12.1414867263
  C        -2.4186461868       14.4929497356       11.3962942588
  H         3.8736129451       12.8995805010       12.3356103278
  H         3.5668935738       13.0022349725       14.0854775069
  C         5.0483504467       14.3157002321       13.4658639180
  C         0.0596390842        8.5212886565       15.7311870161
  C         0.0890757153       10.8195608794       16.8411884960
  H        -0.6902943869        8.8754540059        0.2120387937
  H        -2.1484227376        9.5620124610        0.7065678372
  C        -1.1761510898       10.4377238106       -1.0730601432
  H         5.2472937383       17.3603599461        0.1279075190
  C         5.2935624077       15.9279899237       -1.1722428692
  H        -2.4145230945       15.1144721686       10.4684097794
  H        -2.7179542284       15.0671444479       12.2680992172
  C        -3.6079097567       13.5338377399       11.0494397374
  H         5.2861530628       14.9062734442       12.6906451660
  H         4.8159864486       15.0931934545       14.3093217472
  C         6.1651145750       13.4505548662       14.0484737525
  N         0.2330333658        7.5636471374       14.7210590277
  C        -0.3291436389        7.9032026018       16.9136623716
  C        -0.2278685015       10.0784169976       18.0672502644
  H         0.2585936053       11.8850908930       16.7973041208
  H        -0.5726867863        9.8372642723       -1.7591493577
  H        -0.8267290395       11.4062044401       -1.1853626103
  H        -2.1764082002       10.4831611187       -1.3809205937
  S         5.4874197096       14.3716002183       -1.7119080605
  C         5.3913306515       17.0536444091       -2.1369059048
  H        -3.1735447612       12.8674594128       10.3316396877
  H        -3.8199164120       12.9221028730       11.9308635991
  C        -4.7986241542       14.1161294294       10.2434348937
  H         6.2711225441       12.5267508380       13.4348413941
  H         5.8845449753       13.1157916994       15.0057379392
  C         7.6605780448       14.0755756217       13.9826648268
  S         0.1313832654        6.0647804170       15.3884162149
  N        -0.3276581796        6.4779875535       16.8965811098
  C        -0.4492560786        8.6304070318       18.0841492440
  H        -0.1334914464       10.6597965583       19.0300653857
  C         5.8876424349       15.1018232741       -3.2279738213
  N         5.7181382598       16.4564722914       -3.2750936045
  O         5.2513969044       18.2546835591       -1.9713101485
  H        -5.4874742040       14.4841548274       11.0286162293
  H        -4.3195022028       15.0386368218        9.7762734679
  C        -5.4375916837       13.1231174194        9.2444668779
  H         8.4495370107       13.3305477927       14.2835694753
  H         8.0047500515       14.1922888989       12.9499671824
  C         7.8061420687       15.4176280718       14.7104093033
  C        -0.7810212967        7.8354932324       19.2347490667
  S         6.3599612395       14.2008689656       -4.6671692455
  C         5.8420461785       17.1929251092       -4.5776049734
  H        -4.6440206696       12.6755223842        8.6009751184
  H        -6.0551327417       12.4363561157        9.7888470398
  C        -6.4339445852       13.9166429716        8.4671159556
  H         8.7337268670       15.5423672379       15.0675242563
  H         7.1306472061       15.5844975589       15.6209027573
  C         7.5951852516       16.5969873091       13.7682258652
  H        -0.1428223661        7.0028007469       19.1812790572
  C        -1.3739738841        8.0893866849       20.4017980992
  H         6.6682483457       16.8515019933       -5.1486825993
  H         5.9279128500       18.2736757963       -4.2960303750
  C         4.5234318791       17.1065155756       -5.3653748573
  H        -6.7652500057       13.5892669909        7.4948953916
  H        -6.0329818475       14.8984219385        8.3322361870
  C        -7.7571637772       13.9842279867        9.1527505490
  H         8.0036779109       16.2811892765       12.8141658327
  H         6.5378760446       16.8042673066       13.6029936288
  C         8.2457733311       17.7950136658       14.3088957996
  S        -2.0048063721        9.6132967147       20.9590642313
  C        -1.4938399753        7.0226431404       21.3726332852
  H         4.2246151134       18.0841100912       -5.7310390816
  H         3.7313979515       16.6913700407       -4.8085703561
  H         4.6177296202       16.4618195091       -6.1781433742
  H        -8.1310237361       13.0665869534        9.5758390447
  H        -7.7613928312       14.5846190322       10.0258922178
  H        -8.3597355564       14.5264713561        8.3637457134
  H         8.0340713493       18.7028275876       13.7274262420
  H         8.0804969934       17.7779520625       15.3767506750
  H         9.3340602450       17.6434685637       14.2572635642
  C        -2.5279007275        8.8430508841       22.3505525846
  N        -2.2154494837        7.5292637579       22.3999690050
  O        -1.1718217447        5.7849185177       21.1533134939
  S        -3.0103067333        9.6629908855       23.8614647451
  C        -2.3982703470        6.8244694741       23.5972367062
  H        -2.6419016523        5.8051097685       23.2125481842
  H        -3.3426843470        7.0499489739       24.1206748515
  C        -1.0550440639        6.8430478944       24.4257670480
  H        -0.1410107923        6.7030520809       23.9315248363
  H        -0.9985841678        6.0199020499       25.1309429028
  H        -1.0154957631        7.7404848196       24.9889302530
