352
i =
  H        -1.7705352776       14.5166688537       15.5543537647
  C        -2.3677057830       13.8154408762       16.1129447184
  H        -3.3242126363       14.2667337007       16.5256592065
  C        -1.4676001121       13.1855180434       17.1486425886
  C        -2.8264039524       12.9041169499       14.9228399152
  C        -2.1997566227       13.3935085390       18.5269822308
  H        -1.4052705112       12.2022657363       16.9118684562
  H        -0.4727614437       13.5243162600       17.0673999741
  H        -2.1315190460       12.2029861883       14.5091515474
  H        -3.6324714114       12.2476996544       15.3115419568
  H        -3.2300661203       13.4614345938       14.0732977049
  C        -1.6787828755       12.3544343292       19.6036575601
  H        -3.2439238204       13.1528634381       18.4085965898
  H        -2.2150035345       14.3841716729       18.8491464602
  C        -2.2739109407       12.7164036861       20.9741004954
  H        -2.0022355659       11.3268302907       19.3159380435
  H        -0.5883897493       12.3366502038       19.6763362043
  C        -1.2924751754       12.3884560618       22.1354000588
  H        -3.1625703684       12.1338915557       21.0924349741
  H        -2.5643253348       13.7921049016       21.0509600167
  C        -0.0896097243       13.3065395079       22.2929030337
  H        -1.7808482534       12.3238639763       23.1152522608
  H        -1.0181613318       11.4346392077       21.8431562484
  C         1.1480745172       12.7708234855       23.0503776813
  H         0.2782246246       13.7483125373       21.3688180571
  H        -0.4508348110       14.0836829822       22.9356495649
  C         1.6333032379       11.4929703822       22.3894335420
  C         0.7886935066       12.0437843324       24.3531610386
  C         2.2746570379       13.8011578982       23.1420716206
  C         1.3430875651       10.3106207463       23.1758468438
  C         2.1255317253       11.1712226878       21.1321144827
  C         0.9295887971       10.6988976421       24.4374204142
  C         0.2900149342       12.6746669269       25.4206798855
  H         2.4167052716       14.1969278778       22.1587485949
  H         1.9143289955       14.5892152279       23.6994580738
  C         3.6340632252       13.2194265527       23.6065736042
  S         1.7506953455        8.8860428112       22.3558026771
  C         2.2155370983        9.8265788008       20.9613524164
  H         2.4138555567       11.9529888045       20.4804107922
  C         0.5547424527       10.1110161013       25.6461199669
  H         0.4399741119       13.7599648229       25.3733969274
  C        -0.0596714225       12.1051122485       26.6014138089
  H         4.1202486299       12.6043519632       22.8164471783
  H         3.4546435724       12.5901285666       24.4479044986
  C         4.6200559124       14.2463477762       24.1893845420
  C         2.6295780615        9.2485513671       19.6001189526
  C         0.1203058103       10.8077438918       26.7799221142
  H         0.6491132345        9.0877581280       25.7290028775
  C        -0.4175881285       12.5544956292       27.8473361123
  H         5.3934340251       13.7345059425       24.8087700604
  H         4.0194604225       14.9770803516       24.7772038911
  C         5.3340078594       15.0124008519       23.0203115225
  C         2.5636883145        7.9133118160       19.1957122955
  C         3.2164686941       10.1564758487       18.5292566201
  C        -0.3021236541       10.2136257623       28.1385594432
  C        -0.5550084668       11.5237526511       28.7520833622
  S        -0.5761135652       14.0831130084       28.5321544040
  H         5.8053586997       15.9243317222       23.4815226035
  H         4.5451956840       15.4424585440       22.3673001027
  C         6.3836747777       14.1816060817       22.2885841660
  N         2.2313265105        6.9578628887       20.1003057930
  C         2.9484803368        7.3796096011       18.0080030886
  C         3.5257837601        9.6763705543       17.2373839164
  H         3.4784360167       11.1672276070       18.7602109660
  C         0.8815381688        9.4191399506       28.7718719722
  C        -1.5432538283        9.3675998510       27.8924201724
  C        -0.9521207705       11.9586838751       29.9887037372
  C        -1.0137278821       13.3277866592       29.9698809066
  H         7.3752856972       14.6994616475       22.3444248981
  H         6.6680341042       13.2077582813       22.8168581424
  C         5.9892677932       13.7576536259       20.9169301985
  S         2.3551981998        5.4489250715       19.3745482893
  N         2.8828571977        5.9790524367       17.9236628387
  C         3.4120686746        8.1525320801       16.9788272300
  H         3.7303876184       10.3834612466       16.4892380179
  H         1.1891615193        8.6679979240       27.9782157787
  H         0.5249245873        8.7942736459       29.6830289792
  C         2.1173072653       10.3338097169       29.2016342075
  H        -1.2853262211        8.6350471909       27.1304532846
  H        -1.7399301837        8.9647297550       28.9619456010
  C        -2.8200315026       10.2680480280       27.4856210088
  H        -1.2677060601       11.2508059626       30.7792640574
  C        -1.3117339744       14.0973774002       31.2207121197
  H         5.4482486783       14.6122342918       20.4208957072
  H         5.3925631098       12.8853627152       21.0719905446
  C         7.2638525421       13.3903683581       20.0283559536
  C         3.7549995303        7.5769823593       15.7370235419
  H         2.2707406211       11.1340481497       28.4228408184
  H         1.9607290082       10.7529355996       30.1821119125
  C         3.4177531534        9.5774564593       29.2484318432
  H        -2.5725233737       10.9570600403       26.6437232925
  H        -3.0091644473       10.9607194341       28.2597523033
  C        -3.9372964624        9.3799450114       27.0540836267
  C        -1.4680205374       15.4917514193       31.3438826138
  C        -1.3202482946       13.3046463444       32.4765930643
  H         8.1404077024       14.0680643594       20.3137171653
  H         7.5557812000       12.3789412217       20.1610214049
  C         6.9040424822       13.6123955592       18.6092875994
  H         4.0533345649        6.4874797728       15.8401401099
  C         3.9487300189        8.0193936262       14.4607903297
  H         3.4899980740        8.9278611449       28.4109525867
  H         3.3471545658        8.8254478984       29.9960794294
  C         4.6530931022       10.4281535275       29.3505075266
  H        -3.5210810652        9.0963780497       26.0785767345
  H        -3.9705610615        8.5509165721       27.8300445062
  C        -5.2559499558       10.2066265904       26.9424569865
  N        -1.2184230892       16.4384573745       30.3671586798
  C        -1.7413651457       16.1247389752       32.5749923691
  C        -1.5837560588       13.9593212558       33.6920680555
  H        -1.0997572767       12.2726574775       32.5048597997
  H         6.4722485083       14.6158732113       18.3278772927
  H         7.7906442549       13.5319630972       18.0117639671
  H         6.1654516080       12.8853316248       18.2579008544
  S         3.9918140524        9.6635929521       13.9421577859
  C         4.1692502949        7.0143834915       13.4308818781
  H         4.6926664127       11.1112582026       28.4465764532
  H         4.4270610806       11.2301011188       30.0931553441
  C         5.9495952506        9.6917066142       29.5269162700
  H        -5.0750083411       11.1609325944       26.3653445162
  H        -5.5670085179       10.5140126946       27.9453968221
  C        -6.4267184525        9.4496082098       26.2630355869
  S        -1.4591329428       17.9012474140       31.0085748848
  N        -1.8149294490       17.5087858835       32.5539497165
  C        -1.9126790208       15.4068588347       33.7353521939
  H        -1.6307278576       13.3180114005       34.5946567563
  C         4.4625888261        8.9498590687       12.3929312372
  N         4.4551877791        7.5571539151       12.2999025010
  O         4.2382038359        5.8241698174       13.6518505402
  H         6.7618580638       10.3521703466       29.3692038495
  H         6.0370085651        8.9506087406       28.7320952656
  C         5.9942408083        9.0338871372       30.9464233682
  H        -5.9569850675        8.8833891505       25.4575140461
  H        -6.8109069415        8.7266876560       27.0485304270
  C        -7.4660433329       10.3997182591       25.7072872725
  C        -2.1779425492       16.0844343328       34.9783275694
  S         4.9700476568        9.7453678464       10.8578970694
  C         4.3847984290        6.8380019294       10.9964176402
  H         6.6287105307        9.6777317335       31.5532131980
  H         5.0126895352        8.9485030861       31.3267588177
  C         6.6779313480        7.6562744238       30.8646552390
  H        -6.9988420533       10.7109853971       24.7679033241
  H        -7.6819938702       11.3139916314       26.3407719704
  C        -8.7350271621        9.6858228944       25.4814896815
  H        -1.9724562904       17.1254592026       35.0476389210
  C        -2.7701347780       15.6977579632       36.1660870511
  H         5.0476243341        7.2867100221       10.2132042644
  H         4.8314898376        5.8475752961       11.1735160925
  C         2.9735097602        6.6273748897       10.3805851574
  H         7.5659626198        7.7790312226       30.2426006660
  H         6.0492950159        6.9763591537       30.2834069581
  C         7.0052115383        6.8607825107       32.1175807962
  H        -9.1638800260       10.1637923118       24.6743078068
  H        -8.6209470859        8.5497630103       25.3387336707
  C        -9.6820615075        9.9096930677       26.6677703797
  S        -3.1019804999       14.0792042775       36.6459468110
  C        -3.0027856544       16.7576012641       37.1583781116
  H         2.7435829705        7.4168014664        9.6428780650
  H         2.9596163772        5.7666453947        9.7979496395
  H         2.2411791539        6.6514446209       11.1815964413
  H         7.9634276689        6.3660874382       32.0264178076
  H         6.2190898264        6.1139130680       32.3546211605
  H         7.0514448735        7.4765089863       33.0727519390
  H       -10.3818290721        9.0486990093       26.5913924200
  H       -10.3467162694       10.7547355275       26.6348332483
  H        -9.1475473397        9.9792591578       27.5923801053
  C        -3.5865920049       14.7554641036       38.2195266206
  N        -3.5661021872       16.1423865262       38.2293357971
  O        -2.7683861610       17.9962804349       36.9987231167
  S        -4.6117107274       13.8679828385       39.3884600859
  C        -3.9390908282       16.9298391318       39.4071364161
  H        -4.0888555017       17.9866615427       39.1307790023
  H        -4.8857939287       16.5936732891       39.6859948624
  C        -2.8982441451       16.6675585048       40.4168859543
  H        -2.4646675095       17.6237358326       40.5901274021
  H        -3.1582103863       16.0930359660       41.2486092534
  H        -2.0405937477       16.1325693132       40.0206049770
  H         7.4133638020       10.3568193913        3.0430006022
  C         8.3039706094        9.7496757144        2.8861901570
  H         8.0214201104        8.7109741809        2.8358021471
  C         9.1074606318       10.1743237575        4.0741461120
  C         8.8515907150       10.1189981459        1.5550737479
  C         8.2781137807       10.6238478873        5.3174063931
  H         9.7255560624        9.3398495740        4.3655713413
  H         9.8490896750       10.8801349056        3.8141476284
  H         9.7407659050        9.5161927818        1.3654575496
  H         9.1117382767       11.1073061836        1.6115624173
  H         8.0299931965        9.8787402197        0.8681550345
  C         7.5573595161        9.4459667645        5.8949320310
  H         9.0095869656       10.9245386283        6.0681239573
  H         7.7084002288       11.5028950268        5.0821524543
  C         6.8154292329        9.7414825521        7.2814108417
  H         8.3471498235        8.7195476469        6.0958447286
  H         6.8028775846        8.9084118559        5.2216657855
  C         5.5239905518       10.5308784240        7.2288825790
  H         7.5407803165       10.2379688199        7.9194826868
  H         6.5318943785        8.8676952088        7.8493446125
  C         4.2399762240        9.7146219737        6.8558019582
  H         5.4037658506       10.9646720844        8.2242544192
  H         5.7064665930       11.3765673846        6.4685731986
  C         2.9233446883       10.6127334110        6.7630139263
  H         4.0640043796        8.9410571923        7.6339410596
  H         4.4971348566        9.2594349562        5.8722460268
  C         3.2047145869       11.9858856544        6.0981915087
  C         2.4616989408       11.2897718782        8.0956556412
  C         1.8416451802        9.8742343863        5.9691276070
  C         2.9272483422       13.0606033797        6.9053787381
  C         3.8158408444       12.3804708490        4.9074525664
  C         2.4680970832       12.6514203175        8.1661579165
  C         2.1850970548       10.5713836303        9.2563135232
  H         2.2805341801        9.2849702261        5.1687411626
  H         1.3482277438        9.0746066118        6.5510687535
  C         0.6026201588       10.6149100880        5.5378077418
  S         3.2175402592       14.5704493080        6.0665383762
  C         3.8117231620       13.7454380273        4.6780748897
  H         4.2044067474       11.6165932003        4.1820694717
  C         2.1580941000       13.1332658197        9.3670679720
  H         2.2593760949        9.5190732471        9.1894886037
  C         1.7945278493       11.1622512341       10.4261042680
  H         0.8998423813       11.4355531874        4.9866840256
  H        -0.0654252691       11.0004177027        6.3507146445
  C        -0.3730777642        9.8171202647        4.6679614786
  C         4.2757169829       14.4094496703        3.3859493887
  C         1.7807789892       12.4750687402       10.5536445470
  H         2.0363720586       14.2779488426        9.4619792593
  C         1.3836928493       10.6883185463       11.6535062682
  H        -1.3374246882       10.3834906317        4.7085818419
  H        -0.6265706454        8.9016796274        5.0854403324
  C         0.1476421385        9.6238000657        3.1932700519
  C         4.3255381918       15.8194589680        3.1761642247
  C         4.6572850431       13.5388597275        2.2501002793
  C         1.4848925944       13.0582454857       11.8645098327
  C         1.2029369185       11.7143728505       12.5776485132
  S         0.9310072336        9.1397068076       12.2090305758
  H         0.6229571999        8.6749338999        3.2278045395
  H         0.8539267273       10.3906394197        2.9611624090
  C        -1.0066583641        9.5519630243        2.1243796766
  N         4.2843726183       16.7705068689        4.2397543224
  C         4.5961723577       16.3152978228        1.9412647554
  C         4.8192789449       14.0961786172        1.0145376070
  H         4.8021505888       12.5121636871        2.4526589991
  C         0.2295424683       13.8801598670       11.8485640629
  C         2.7506412804       13.7298647917       12.3654333605
  C         0.7265845861       11.2118700950       13.7593057734
  C         0.6838692678        9.8539797103       13.7637449559
  H        -1.7662145398        8.9656233364        2.6226972430
  H        -1.4102628089       10.6014978270        1.8571558666
  C        -0.6680539294        8.7995007519        0.8419187308
  S         4.4162936789       18.2288378964        3.4997556414
  N         4.6169995538       17.7346643530        1.9660445542
  C         4.8654775235       15.5531236370        0.7630145264
  H         5.0905386783       13.4945246490        0.1437919871
  H         0.4197216826       14.8684650581       11.4879011016
  H        -0.0055612592       14.0914250919       12.8784727666
  C        -0.9774010067       13.1466110962       11.3075218927
  H         3.5203177882       12.9668792098       12.1171040792
  H         2.9041873383       14.6335581795       11.7647629081
  C         2.7762374114       14.1140921743       13.8328349823
  H         0.5847099228       11.8407927847       14.6789755138
  C         0.2319908366        9.0286106974       14.9037753656
  H        -1.7058943409        8.5226788305        0.5843672902
  H        -0.0685641064        7.9518751272        1.0371780637
  C         0.0743907723        9.7975067339       -0.1041170468
  C         5.0288324537       16.2706001553       -0.4884987009
  H        -0.7584656310       12.5420353590       10.4517839943
  H        -1.3567521133       12.4375511984       12.0812583577
  C        -2.1127575865       14.0831430056       10.8979354300
  H         2.5740329467       13.3736169709       14.5555157132
  H         1.9999891122       14.8173224440       13.9437823934
  C         4.0484949396       14.8144041030       14.0506724981
  C         0.1623536124        7.6261603810       14.9913570229
  C        -0.0389965233        9.7613565815       16.2120466235
  H         0.7508758711       10.3706216642        0.5444464932
  H         0.7921461589        9.3118207460       -0.7272225468
  C        -0.8057973784       10.7359939608       -1.0122064217
  H         4.7120814609       17.3013796254       -0.4608916458
  C         5.4419488154       15.8371901112       -1.7375138173
  H        -1.7590298366       14.7022472778       10.0365320652
  H        -2.4146909393       14.7199909952       11.7392365518
  C        -3.2732876765       13.3051861805       10.2986964624
  H         4.5460815975       14.9793723963       13.0842507453
  H         3.7595936961       15.7487354066       14.4808440216
  C         5.0181958224       14.0562925041       15.0005114780
  N         0.4555462753        6.7727690256       13.9727613335
  C        -0.0594845015        6.9329161295       16.1291439678
  C        -0.4053167057        9.0439878998       17.3821041707
  H         0.0571618180       10.8017180973       16.2459736608
  H        -1.6731763343       11.1226460901       -0.4930891289
  H        -1.1412914803       10.1999916476       -1.8292798249
  H        -0.2774625171       11.6014860050       -1.3407832802
  S         5.9041041235       14.2589930230       -2.2720528572
  C         5.2810023870       16.8418342994       -2.8603509468
  H        -2.9345149804       12.4522606426        9.6630168381
  H        -3.7693517944       12.9027048145       11.2108590840
  C        -4.3060604231       14.0622858157        9.5137235134
  H         4.9126653846       13.0025976306       14.8655047002
  H         4.6283830089       14.1924324167       16.0039541444
  C         6.4242563897       14.5760846955       14.8112183158
  S         0.5828433335        5.2596136886       14.5191194254
  N        -0.0442179264        5.5528403170       15.9989066141
  C        -0.3570748959        7.5578649808       17.3901434633
  H        -0.5603352026        9.5649631328       18.2946923650
  C         6.0131471517       14.9606610432       -3.9001505330
  N         5.8029617062       16.2760400950       -3.9936446832
  O         4.9741260947       18.0158034816       -2.6775673140
  H        -4.8137772309       14.7302278388       10.2029997927
  H        -3.9047850019       14.7388199091        8.8360910578
  C        -5.3037978149       13.1402354644        8.7408982947
  H         6.9387661749       13.9395185931       15.5577908881
  H         6.7884894884       14.3041195730       13.8294653998
  C         6.7780343718       16.0114271509       15.2696299130
  C        -0.7630603184        6.7854827246       18.5827492931
  S         6.5916791245       14.1202263588       -5.3253132809
  C         5.8317109731       16.9618427474       -5.2847962480
  H        -4.7805818365       12.8731404969        7.7993863899
  H        -5.5205181874       12.2420163547        9.4269288913
  C        -6.6241815693       13.9338967735        8.4680761091
  H         6.9224220196       15.9147472382       16.3858497276
  H         5.8453253242       16.6576367766       15.0226351397
  C         7.9943113088       16.5356412231       14.4514894424
  H        -0.7364357203        5.7095130500       18.5236474602
  C        -1.1787402031        7.1052366869       19.8466057151
  H         6.7348773570       16.5169217817       -5.8369987524
  H         5.9155064102       18.0811772939       -5.1279491536
  C         4.4556552246       16.7155132125       -5.9242926704
  H        -7.2402278091       13.4602451499        7.6248628007
  H        -6.4024919477       14.9421245546        8.0538310460
  C        -7.4858147791       14.1752059098        9.5904409037
  H         8.5831940595       17.1379424808       15.1181988841
  H         8.6663600317       15.7379961587       14.2677323490
  C         7.7435121963       17.2537088621       13.1048585938
  S        -1.6652177309        8.6502800610       20.3345915925
  C        -1.1891210673        6.0058763882       20.8784497942
  H         3.6551905223       17.2314587658       -5.3005271331
  H         4.2387711693       15.6979819289       -5.7430162782
  H         4.3778714304       16.8802360422       -7.0246641652
  H        -8.4787146172       14.4836845140        9.1883717894
  H        -7.6472585756       13.2942769550       10.2472478749
  H        -7.0881393430       15.0360021141       10.1977178382
  H         7.4278703036       18.2608967161       13.3126710850
  H         8.6232944193       17.4108906056       12.5256259328
  H         7.0624847946       16.6874141306       12.5399907851
  C        -1.8176110107        7.8825601288       21.9451026574
  N        -1.6896691476        6.5360067496       22.0430012776
  O        -1.0120431122        4.8336778163       20.5965850119
  S        -2.2602127064        8.7596212239       23.4090407013
  C        -1.8189869457        5.6328252581       23.1741907413
  H        -2.1202833946        4.6361276657       22.8700117412
  H        -2.5737235797        6.0145456404       23.8387641090
  C        -0.4813337988        5.4558335778       23.9024669331
  H        -0.6410791091        4.9764318136       24.8660275580
  H         0.0317751482        6.4324881713       24.0683058052
  H         0.1696818989        4.6909406492       23.4388295291
