352
i =
  H        -4.1078230198       14.6382216231       16.5475295602
  C        -3.6653405636       13.6837605798       16.4142546950
  H        -4.5327201787       13.0728026903       16.6182079660
  C        -2.4969969901       13.4225388523       17.3865589104
  C        -3.1293501633       13.6575040287       15.0554083193
  C        -2.9220767217       13.4611025018       18.8811207237
  H        -1.9806644432       12.4668261680       17.0679553075
  H        -1.7877737664       14.2932648104       17.3847512756
  H        -3.7868659775       13.3654185199       14.2015096530
  H        -2.7957662066       14.6827905322       14.7059728663
  H        -2.2835855483       12.9653651511       15.0732702247
  C        -1.7706048351       13.2829069585       19.8604224258
  H        -3.7789153502       12.7967343517       19.0270902779
  H        -3.3068594868       14.4434156326       19.0653803391
  C        -2.2710127168       13.3369858950       21.2821382638
  H        -1.2539300303       12.3804955673       19.6523544022
  H        -1.0821043283       14.0637275608       19.6772604797
  C        -1.2212166071       12.8233085180       22.2897497235
  H        -3.0957847673       12.7138376189       21.3025774480
  H        -2.5964058254       14.4309450743       21.3230836536
  C        -0.0608828130       13.8052907817       22.7207159138
  H        -1.8784374955       12.6396741811       23.1655913520
  H        -0.9406004647       11.8271307902       21.9655961711
  C         1.1608325861       13.1020539491       23.4084318180
  H         0.3992246562       14.3777315245       21.9590521427
  H        -0.3680621939       14.5896936727       23.3549491640
  C         1.5818388202       11.7539383539       22.7344051651
  C         0.7082000219       12.3249080365       24.6579609604
  C         2.3542184443       14.1610998119       23.5414219354
  C         1.3263016263       10.6525071810       23.5103891427
  C         2.2307850316       11.3869857185       21.5533658226
  C         0.8047426483       10.9967433364       24.7463165882
  C         0.3000567411       12.9960715478       25.8154365929
  H         2.6524513955       14.5735496354       22.5468843356
  H         1.9629796123       14.9891265016       24.1093547368
  C         3.6315384499       13.4430192309       24.1836220800
  S         1.6251817823        9.1413359998       22.7778419239
  C         2.2759003509       10.0546493149       21.4429645627
  H         2.4863991565       12.1737693512       20.7947297009
  C         0.4989129112       10.3376902145       25.8935110183
  H         0.3100261686       14.0964468832       25.7922221384
  C        -0.1490492929       12.3266908665       26.9375391674
  H         3.7401992001       12.3748413623       23.9151857008
  H         3.4868057707       13.3917653271       25.1945668116
  C         4.9435763094       14.2946866964       24.1535674572
  C         2.6207678510        9.2969377008       20.1239717895
  C         0.0065974670       10.9696147416       27.0556980672
  H         0.3897475918        9.3428269163       25.8903645032
  C        -0.7077709962       12.7024443480       28.1374573352
  H         5.5798093963       13.8125843718       25.0084998504
  H         4.7766029929       15.3102474548       24.4454861474
  C         5.5329745612       14.4467156032       22.7308111378
  C         2.3264377265        7.9251918638       19.8046392511
  C         3.1245092634       10.0072048154       18.9823604898
  C        -0.5452281280       10.2892112840       28.2662669780
  C        -1.0282495293       11.6120406317       28.8776738555
  S        -1.1161519010       14.2197068323       28.8537959504
  H         6.3493124844       15.0869374476       22.7429060895
  H         4.8970191004       15.1175478829       22.1228644459
  C         5.9419007105       13.1032850773       22.1149343697
  N         1.8154959783        6.9684045664       20.7493912340
  C         2.5348979389        7.3268746436       18.6147706434
  C         3.2456625790        9.4426276198       17.7004905667
  H         3.2579783430       11.1079717231       19.0045754853
  C         0.5229465666        9.6371293971       29.1839942694
  C        -1.8293082532        9.4082664465       28.0683724855
  C        -1.5018150265       12.0399140573       30.1407796044
  C        -1.5942000941       13.3921775844       30.2849386274
  H         6.9432659160       12.9912020373       22.5645080394
  H         5.4162552426       12.2119296465       22.4984643416
  C         5.8866403384       13.1910641205       20.5818855069
  S         1.7748337333        5.4955896213       20.0478971007
  N         2.1636549582        5.9366812574       18.5234029713
  C         3.0985913299        7.9965250399       17.4875397210
  H         3.5862172556       10.1089846404       16.8379146436
  H         0.6209673043        8.6145144478       28.9356633493
  H         0.1230785367        9.4689787481       30.1153140650
  C         1.8012046893       10.4217143041       29.4077719409
  H        -1.5700601307        8.7966028002       27.2075157091
  H        -2.1491353430        8.7732841796       28.8902573197
  C        -3.0797211002       10.2330352964       27.6474355172
  H        -1.7078850035       11.4678898912       31.0011284039
  C        -1.9720229509       14.1659585259       31.5654942501
  H         5.1452080996       13.8981902137       20.1763534695
  H         5.5970793345       12.2524668768       20.1131155846
  C         7.2804002485       13.3240654724       20.0227378069
  C         3.2689877437        7.3108527344       16.2087141827
  H         2.2234689856       10.8310820181       28.5033808055
  H         1.6199647036       11.2223011456       30.1591464070
  C         2.7965502369        9.5596036584       30.1758438888
  H        -2.7182748635       10.9392242259       26.8854259475
  H        -3.4181096410       10.9121518744       28.4243448487
  C        -4.3478333272        9.4218275646       27.2564900211
  C        -2.0840064679       15.5652522111       31.6382006274
  C        -2.2399186114       13.4696824191       32.8497108184
  H         7.9357006287       14.1013836237       20.4967091888
  H         7.7515755660       12.3778216215       20.2149962731
  C         7.3869724253       13.3444723386       18.4093007936
  H         3.5326765104        6.2748144950       16.3523094276
  C         3.4984259940        7.7256104384       14.9552014352
  H         3.1429653321        8.6957325251       29.5198973644
  H         2.3154134921        9.0306587603       31.0708768761
  C         4.0197364723       10.2785199711       30.7594926914
  H        -4.0978460579        8.6494349529       26.5129456947
  H        -4.7480275527        8.9349770327       28.1400487716
  C        -5.5188285084       10.3761056773       26.8189448122
  N        -2.0082530822       16.5001343541       30.5356362311
  C        -2.2469398421       16.2978216261       32.8309664962
  C        -2.6285366517       14.1351678162       33.9666546153
  H        -2.1316292956       12.3699594474       32.9255917536
  H         7.8007133757       12.4259736010       18.0620857362
  H         6.4378182724       13.5432588072       17.9501943862
  H         7.9945822341       14.2228959997       18.0386845089
  S         3.8007116334        9.3613626485       14.4190421588
  C         3.5535836440        6.7092997715       13.8630968842
  H         3.9971750234       11.2053499714       30.1353131023
  H         3.9225371134       10.5494555118       31.8176418482
  C         5.3063253236        9.3897987007       30.6099047488
  H        -5.2582290466       11.0383423434       25.9547213780
  H        -5.8458768726       11.0360866103       27.6596719253
  C        -6.7111366168        9.6321015428       26.2469583968
  S        -1.9273222820       18.0305725098       31.1941130021
  N        -2.2179694164       17.7014742467       32.7603212176
  C        -2.5016143421       15.6119707158       34.0013457352
  H        -2.8220956661       13.5388100328       34.8214234511
  C         4.0311181207        8.7038652255       12.8575445093
  N         3.9916428467        7.3671314917       12.7724235664
  O         3.2935865190        5.4818588155       13.9872632319
  H         6.1674372299        9.9475504113       30.7113690265
  H         5.3066950361        9.0332861900       29.6574949407
  C         5.1864265330        8.2843532843       31.6743050862
  H        -6.3359773032        8.8179429102       25.5611693178
  H        -7.1390225468        9.1392956895       27.0934652756
  C        -7.7831192193       10.5188751465       25.6432799320
  C        -2.7591350277       16.4090959174       35.1654416429
  S         4.5003651207        9.5934848365       11.4534226120
  C         4.0042273410        6.6155593988       11.4963021715
  H         5.4917926940        8.6596622173       32.6573345358
  H         4.1276432706        7.9036647806       31.6893540036
  C         6.0911004981        7.0577923877       31.4707508205
  H        -7.2565269159       11.0500108731       24.8086814551
  H        -7.9207442682       11.2296371929       26.4707827517
  C        -9.0740642797        9.7260171509       25.3702919235
  H        -2.5873027763       17.4722091087       35.1361078568
  C        -3.2760418965       16.1142911194       36.4591531965
  H         4.6885598630        6.9045268090       10.7728537419
  H         4.3855414274        5.6411731347       11.7790458496
  C         2.6376060451        6.7150307008       10.8102867721
  H         5.8133956289        6.2118236363       32.0800447778
  H         7.0831506465        7.3379598497       31.8732781697
  C         6.0865353417        6.4893945022       30.0603037198
  H        -9.4818319546        9.9763226745       24.4007823595
  H        -8.9369177185        8.6807098147       25.3292735957
  C       -10.1183302085       10.0050326433       26.4870739297
  S        -3.9395029855       14.6030786990       37.0343726180
  C        -3.3875872001       17.1752044922       37.4424143401
  H         1.7811573377        7.1561723377       11.2747031232
  H         2.6201052941        7.2578471150        9.8758880456
  H         2.3209128139        5.6918244268       10.4880356771
  H         6.5082853101        5.5273629416       30.2337330665
  H         6.5854055994        7.0038158007       29.3404253577
  H         5.0588467251        6.4286065314       29.7741819123
  H        -9.6498811661       10.5850729611       27.3293308649
  H       -10.3456603516        9.0918022896       26.9962130802
  H       -11.0161665706       10.4880346316       26.0661470060
  C        -4.1785128318       15.4084682376       38.5699469684
  N        -3.8863760721       16.7058115784       38.5706252518
  O        -3.0337097001       18.3631251552       37.3249663683
  S        -4.7253272830       14.6012685040       40.0329543563
  C        -4.1126499920       17.5664779828       39.6724614020
  H        -4.5976319644       18.3778412647       39.2295165782
  H        -4.7823178713       17.0677349611       40.4163718340
  C        -2.8042246780       18.0787726352       40.2682671717
  H        -3.0415075052       18.8282388093       41.0614043094
  H        -2.3921861479       17.1785058245       40.6947915889
  H        -2.1310152883       18.4519856155       39.5502051295
  H         6.9520664329       11.3892845234        3.3849221500
  C         7.7064477375       10.6566003211        3.3600401272
  H         7.1404579378        9.7289190727        3.2658783676
  C         8.6329419927       10.8629578983        4.5571861771
  C         8.6540696226       10.4265594499        2.1191450067
  C         7.8612192427       11.0095113718        5.8453891149
  H         9.4288769131       10.0633342619        4.6524551940
  H         9.2016760634       11.7942089220        4.3970055121
  H         9.2547370597        9.5568727151        2.1925375174
  H         9.3751309697       11.1612333727        1.9543188659
  H         8.0411947789       10.2188416744        1.1989374790
  C         7.2214808815        9.6597893388        6.2584801287
  H         8.5225624613       11.2379363879        6.6315979131
  H         7.0834319866       11.8111991000        5.7389557579
  C         6.5585524147        9.7610434754        7.6784814925
  H         7.9749884044        8.8580933143        6.1568266872
  H         6.4622005163        9.4848346478        5.5414460001
  C         5.2088874450       10.5960088802        7.8066445769
  H         7.3061622581       10.2601702315        8.4090576566
  H         6.5143221784        8.8691020435        8.3559855272
  C         3.9622829147        9.8615215946        7.2569682012
  H         4.8711414872       10.8427411227        8.7648759395
  H         5.3690348711       11.5498026993        7.3318052816
  C         2.6508351785       10.6696732845        7.2077447051
  H         3.8116976827        8.8214739161        7.6713059125
  H         4.1990683911        9.7467395254        6.2248340544
  C         3.0380949220       12.0169758985        6.5720272773
  C         2.2479598482       11.3776989973        8.4425798930
  C         1.3905303567       10.1277756013        6.5685373295
  C         2.9004312426       13.1519575348        7.3970393001
  C         3.6067430536       12.3382534631        5.2624444463
  C         2.3860378853       12.7014434103        8.6178166438
  C         1.8388623422       10.8197794449        9.5952960404
  H         1.6868562851        9.7084895874        5.6107608155
  H         0.9165690346        9.3800562133        7.1546685522
  C         0.2359428841       11.0360978309        6.1871906363
  S         3.4642503729       14.6000245715        6.6225791341
  C         3.9212842573       13.6925648340        5.2146709894
  H         3.8414477101       11.5091821339        4.5678463422
  C         2.0540459033       13.3542648828        9.7815675065
  H         1.7652732132        9.8098157206        9.6051952806
  C         1.3989414084       11.4719261639       10.7374819423
  H         0.4639006888       12.0783788313        6.0123975623
  H        -0.3479877695       10.9145482782        7.0299388875
  C        -0.7228366854       10.4433004693        5.1712350973
  C         4.2456606622       14.3969763886        3.9065168164
  C         1.4975396721       12.7858356848       10.8995470784
  H         2.2920815281       14.4346265524        9.9383443491
  C         0.9974296157       11.0357800210       11.9698198812
  H        -1.6331455159       11.0385006365        5.1470080139
  H        -1.0047656960        9.4441051994        5.5086235970
  C        -0.2154090873       10.2933824982        3.7682289120
  C         4.1580714481       15.8099886365        3.6363258194
  C         4.6843940593       13.5939139837        2.7184916753
  C         1.0517292957       13.4104859079       12.2078641586
  C         0.8697739648       12.0359302063       12.8866069511
  S         0.7185285948        9.4859134174       12.6150130116
  H         0.2919890030        9.3727577836        3.8337191380
  H         0.5525549274       11.0409805308        3.4582293967
  C        -1.1788951989       10.0384864942        2.5580417149
  N         3.9201982214       16.7025472475        4.6255439252
  C         4.4550429284       16.3942999383        2.4292127410
  C         4.9880435820       14.1799111781        1.5529859545
  H         4.8403396878       12.5249528811        2.9376213019
  C        -0.2606812069       14.2144927686       12.0187659287
  C         2.1773161196       14.1799678538       12.8239285326
  C         0.5059303127       11.6640700055       14.2049591505
  C         0.4907125363       10.3010349431       14.2238809941
  H        -2.1500470415        9.6276357842        3.0117093575
  H        -1.3481218639       10.9980745015        2.1317396918
  C        -0.5915383007        8.9475748655        1.6237005804
  S         4.0225827758       18.1832563160        4.0290684317
  N         4.2862946568       17.7962794981        2.4500459222
  C         4.8067855528       15.6242745345        1.3228654439
  H         5.1892645106       13.5951296476        0.7341803308
  H        -0.1009135934       15.0468546525       11.4136943697
  H        -0.5805297307       14.6983957168       12.9915594225
  C        -1.4385967041       13.4515356805       11.5560300786
  H         2.5186914771       14.8257746919       12.0473996154
  H         1.7597730112       14.7795951799       13.5788599476
  C         3.4169949998       13.5160514108       13.5081507748
  H         0.2927508374       12.5143344371       14.8942951020
  C         0.1943665328        9.4150698712       15.4020456373
  H        -0.4853312204        7.9792828988        2.2128519920
  H         0.3778551923        9.3071257516        1.2165187770
  C        -1.3803164048        8.8912680348        0.3205122631
  C         5.0126511118       16.2517176255        0.0231008701
  H        -1.2148542531       12.8449909987       10.6753881822
  H        -1.6982842393       12.7560423783       12.3112365777
  C        -2.7529638077       14.2247957935       11.3198966708
  H         3.8689860209       12.8211080238       12.8305242394
  H         3.0112535022       13.0399848966       14.4272216985
  C         4.5627109235       14.5247946817       13.7971440861
  C         0.0464840603        8.0016564528       15.4783078476
  C        -0.1743476538       10.1582434050       16.6588812009
  H        -1.3009017105        7.9309566935       -0.1878917014
  H        -2.4151746777        8.9932058406        0.5165205855
  C        -0.9963913635        9.9331223903       -0.7110699508
  H         4.6923534086       17.2645008995       -0.0699710894
  C         5.3952107114       15.7185124723       -1.2160584360
  H        -2.5506334861       15.0487985556       10.6434626258
  H        -2.9813933830       14.8508762856       12.1952984927
  C        -3.8933877609       13.4205550560       10.8856195062
  H         4.7607722562       15.1267888709       12.8862245019
  H         4.2404551057       15.1470577736       14.5433566838
  C         5.7995466543       13.8428145330       14.4433923566
  N         0.2133265197        7.1188492196       14.4184013823
  C        -0.3245834072        7.3956162222       16.6571888066
  C        -0.5852653216        9.5529663904       17.7689603996
  H        -0.3789942273       11.1978739387       16.6243948074
  H        -1.9198475574       10.2603347315       -1.1890594468
  H        -0.3041314814        9.3714410219       -1.3649539454
  H        -0.4961089830       10.7392493967       -0.1511815378
  S         5.6104124958       14.0359112689       -1.5953318696
  C         5.4969643681       16.6151619889       -2.3477490701
  H        -3.5031084705       12.5487429113       10.3881777808
  H        -4.3364520131       13.1664492329       11.8117289268
  C        -4.9659546386       14.1744501523       10.0991907721
  H         5.5620925991       12.8109579918       14.2142039502
  H         5.8172706283       14.0036871757       15.5732999403
  C         7.2071474486       14.2806126307       13.9349898588
  S         0.1203782504        5.6370910047       15.0024358421
  N        -0.3163322605        6.0087507023       16.5295483666
  C        -0.6250459797        8.0839538271       17.8630726690
  H        -0.8570799601       10.1729050110       18.5458070946
  C         5.9000654991       14.6197259411       -3.2638996248
  N         5.8861213384       15.9730636512       -3.4175856960
  O         5.3870820592       17.8670274559       -2.2971249223
  H        -5.8093387591       14.4783734139       10.7352099021
  H        -4.6501356916       15.0893344284        9.6922768661
  C        -5.4309235693       13.3606609893        8.8678394754
  H         7.8390149782       13.4437289258       14.0790708759
  H         7.3855152435       14.3916279728       12.9103796719
  C         7.7296272467       15.4966178813       14.5688615451
  C        -0.9920569290        7.3511338456       18.9937976557
  S         6.2702940858       13.6762926833       -4.6675979629
  C         6.1367197633       16.5624851309       -4.7383568205
  H        -4.5798104804       13.3686327875        8.1923201236
  H        -5.6111462650       12.3109085613        9.0726690766
  C        -6.6992775979       13.8984476827        8.1567233070
  H         8.7715601783       15.6869937904       14.2242702707
  H         7.7762930617       15.3135010581       15.6332150837
  C         6.9652818976       16.7304278085       14.2669207169
  H        -1.1189843470        6.3180928390       18.8569220959
  C        -1.3744939467        7.6807144091       20.2707503737
  H         6.8320314853       15.9842507257       -5.2220462887
  H         6.6240634057       17.5315133037       -4.6798525718
  C         4.9790755264       16.7405774289       -5.7116459875
  H        -6.9978657467       13.3702967442        7.2151126803
  H        -6.3904356604       14.8614934937        7.9241677406
  C        -7.9252376169       14.0981484143        9.0621219797
  H         6.7015051519       16.7351025979       13.1972006376
  H         5.9778791742       16.6978369117       14.8004495298
  C         7.7087439880       18.0459616514       14.6922534551
  S        -1.6413662358        9.2427623736       20.9703072297
  C        -1.5935249873        6.5715942362       21.2646956922
  H         5.0789346039       16.3316203479       -6.6856649740
  H         4.7134145422       17.7086759752       -5.8629032604
  H         4.0296113305       16.2162355829       -5.3607256833
  H        -8.2576419366       13.1123477999        9.2397686602
  H        -7.8801661713       14.5765999375       10.0034199838
  H        -8.7373329478       14.7170276614        8.5803346630
  H         7.7324097206       18.2000268611       15.8161608243
  H         8.7237563350       18.2947137043       14.3370745771
  H         7.0105848526       18.7618382059       14.1814241871
  C        -2.2071748928        8.4088903399       22.4667760775
  N        -1.9734901747        7.0809556232       22.4243708062
  O        -1.2463474890        5.4058105252       21.0610426206
  S        -2.6062425150        9.1912197272       23.9624371513
  C        -2.0363027864        6.1697322720       23.5263730229
  H        -2.3100708647        5.1895432858       23.1782686441
  H        -2.7638612328        6.6357563752       24.2991745817
  C        -0.6601395483        6.1523790645       24.2712356136
  H         0.1354495415        5.6272242157       23.6654793626
  H        -0.6638498575        5.8253217556       25.3422775486
  H        -0.1831001207        7.1722048530       24.3776179103
