352
i =
  H        -2.8601072244       14.8883638320       16.4904577209
  C        -2.5821238790       13.8598025068       16.4988220210
  H        -3.5766398119       13.4067063187       16.5608836922
  C        -1.8180687382       13.4212783280       17.6938666564
  C        -1.9942999067       13.4964981239       15.1884124097
  C        -2.5519503112       13.6919218744       18.9787146076
  H        -1.5845838439       12.2898828676       17.6395735550
  H        -0.9544556551       14.0775509503       17.7259402466
  H        -1.2298838111       14.2056357799       14.7851888726
  H        -1.6165662884       12.4543443353       15.2507867477
  H        -2.7598265609       13.4802738243       14.4634105741
  C        -1.8452075190       12.8736881483       20.0876173783
  H        -3.6168958403       13.4113106263       18.9029476809
  H        -2.3880150659       14.7950539175       19.0789243865
  C        -1.8922524050       13.5688537063       21.4820251523
  H        -2.2621414818       11.8589892653       20.0971873271
  H        -0.8575134278       12.7417986731       19.7306670047
  C        -1.0001974750       12.8892878265       22.4943159022
  H        -2.8917250496       13.4904876273       21.8907203734
  H        -1.6049431988       14.6078216799       21.3639087008
  C         0.0887597587       13.8975056361       22.8484251829
  H        -1.5912238511       12.6678624098       23.3759994170
  H        -0.5621685074       11.9502617195       22.2156385168
  C         1.3570007064       13.3015515587       23.6165544205
  H         0.4218808492       14.3756447687       21.8977070417
  H        -0.3256584679       14.7331994100       23.4198428134
  C         1.7353075631       11.9323837214       22.9306494266
  C         0.8959029643       12.5388557873       24.8418724265
  C         2.6032206272       14.2331773716       23.7896978965
  C         1.4327073566       10.8009379000       23.6485074214
  C         2.3651876155       11.5433151935       21.6972055416
  C         0.9408567849       11.1764523843       24.8958219286
  C         0.4201386823       13.1113735349       26.0136696783
  H         2.9133451847       14.5512150017       22.8117724885
  H         2.2691947947       15.1315842839       24.3856245039
  C         3.8419769234       13.4833404134       24.4408174993
  S         1.8285407047        9.2903015555       22.8931059105
  C         2.3500104513       10.1951756589       21.5127500161
  H         2.7258852703       12.2666091431       21.0135522301
  C         0.5593417270       10.5307708620       26.0444745713
  H         0.3454205196       14.2301741423       25.9486493005
  C         0.0325582161       12.5146472051       27.1326106727
  H         4.2018431301       12.7190148176       23.7461909306
  H         3.5178750732       12.8757216904       25.3314066385
  C         5.0440783892       14.3803587606       24.5618869562
  C         2.6615680448        9.5680968801       20.2199365993
  C         0.1285758116       11.1815644178       27.2458859276
  H         0.6171100964        9.4931620033       26.1765407494
  C        -0.3550759076       12.9221833236       28.3813280582
  H         5.8131508770       13.9670085491       25.3350878075
  H         4.6162087128       15.2306285829       25.1106245046
  C         5.7498440140       14.7814284366       23.2744998380
  C         2.6765959120        8.1617132803       19.9807547069
  C         3.2238608344       10.3206350873       19.1040060310
  C        -0.1903081966       10.4813907283       28.5231499506
  C        -0.3731963564       11.8537838635       29.2655596962
  S        -0.7405555350       14.4621736004       29.0343776962
  H         6.5867911211       15.4510544625       23.4477420951
  H         5.0981830394       15.3864748317       22.6616459800
  C         6.3631444547       13.5575766777       22.4964110538
  N         2.2489912579        7.1638973143       20.8541446276
  C         2.9588333724        7.6384929223       18.6911484229
  C         3.4603067939        9.8336741890       17.8858843506
  H         3.4341219974       11.3649357840       19.3191042535
  C         0.9383777813        9.6506336977       29.1029356326
  C        -1.5967725979        9.7677986698       28.4084774056
  C        -0.6659605602       12.3674257828       30.5979882717
  C        -0.8766839802       13.7179856076       30.5533814710
  H         7.4060749929       13.6830242725       22.3285689994
  H         6.4204928428       12.6893404478       23.1991512871
  C         5.6936466033       13.2175697996       21.1050100313
  S         2.3857029858        5.7364680788       20.1722094377
  N         2.9311856680        6.2344070545       18.6832707588
  C         3.3472123092        8.3912940314       17.5333634617
  H         3.9534955891       10.4542636956       17.1370474839
  H         1.2012110757        8.9035701905       28.4082260905
  H         0.4637243454        9.1445396778       29.9744424389
  C         2.1990918748       10.3835200198       29.6621446751
  H        -1.4161894897        8.9578574663       27.6347433061
  H        -1.8947726475        9.4432743447       29.4039347209
  C        -2.7212309195       10.5942247135       27.8183111984
  H        -0.7424492451       11.6443162758       31.3934388624
  C        -1.2160986211       14.5112943731       31.7734199493
  H         4.7830343278       13.7930859263       20.9247400677
  H         5.3344104070       12.1859355060       21.0646450680
  C         6.7863191094       13.2964518901       20.0546792322
  C         3.5136203345        7.8312142118       16.1923791822
  H         2.6175696170       11.0005815767       28.8854052154
  H         1.7458879684       11.0046816649       30.4602346937
  C         3.1892926199        9.5084557675       30.3313066194
  H        -2.4247373116       11.3037349318       26.9927287252
  H        -3.1499116585       11.2622363971       28.5872766900
  C        -3.8816088174        9.8197793092       27.2541300056
  C        -1.4736543485       15.9189689612       31.8487277207
  C        -1.4543482281       13.7297192120       33.0486620823
  H         7.4013530135       14.1771970283       20.2846165930
  H         7.3619566834       12.4305085712       20.0409183871
  C         6.1834279674       13.4306820930       18.6084414199
  H         3.5531015560        6.7358652989       16.1767941188
  C         3.8392559782        8.3653102482       14.9611734701
  H         3.2247222818        8.5059455529       30.0038579286
  H         2.8809778876        9.3767275411       31.3865661245
  C         4.6094380369       10.0792534583       30.2878159683
  H        -3.5154003964        8.9650898191       26.6361110433
  H        -4.3042533432        9.3241244878       28.1227861954
  C        -4.9634468748       10.7200892425       26.7248164987
  N        -1.2710458974       16.8229344495       30.7712544799
  C        -1.7018242485       16.5669856709       33.0469887470
  C        -1.7670373248       14.3933910010       34.2167966363
  H        -1.3503812589       12.6864379346       33.2024422965
  H         6.8593494173       13.0625992199       17.7925612380
  H         5.2742712544       12.8520156546       18.4358743263
  H         5.9284895000       14.4612188899       18.3924278441
  S         4.1848330485        9.9970940886       14.5613182355
  C         3.9786449618        7.3072635279       13.8431707096
  H         4.6107336998       11.0585258878       29.8402829890
  H         4.9314532479       10.2812110179       31.3068340537
  C         5.6645604627        9.1430984240       29.7327486594
  H        -4.6008284950       11.5210310158       26.1257713440
  H        -5.3692626064       11.1978899712       27.5885486251
  C        -6.0400597436        9.9575420624       25.9181206773
  S        -1.1698764155       18.3169026824       31.4015759496
  N        -1.6273222721       17.9596320407       32.9192152162
  C        -1.8963557120       15.8781698922       34.2691851683
  H        -1.9481017599       13.8378459260       35.1391442109
  C         4.5019549189        9.2800137775       12.9336881972
  N         4.3735474185        7.9510604842       12.7305444480
  O         3.6874979318        6.0905692672       13.8973433002
  H         6.4351277725        9.6348240313       29.2231836208
  H         5.1418996878        8.5747927794       28.9848230570
  C         6.1246933051        8.2341927998       30.8287446319
  H        -5.7097282984        9.2787792165       25.1247836086
  H        -6.6514133639        9.3580106669       26.5491428278
  C        -6.7807767952       10.9460983871       25.0346358068
  C        -2.3213340057       16.6266830106       35.3973030629
  S         4.7773222008       10.2906954457       11.5414180241
  C         4.3857668472        7.3163277860       11.3980986290
  H         6.5993605029        8.7082374163       31.6872755810
  H         5.2862442917        7.9167048144       31.3599780239
  C         6.8094443097        6.9645331186       30.3049809380
  H        -6.1281559813       11.0095852779       24.2072968328
  H        -6.7687847422       11.9785596391       25.3398326308
  C        -8.2029038749       10.4461643709       24.6987039862
  H        -1.9502908042       17.6082989361       35.2901959031
  C        -2.9176064287       16.3007669672       36.6090006238
  H         5.1286032078        7.7461108363       10.6828888894
  H         4.7280507788        6.2537931667       11.4211919196
  C         2.9642488958        7.2896022895       10.7345875632
  H         7.7198962162        7.2742111751       29.7788745606
  H         6.2065139219        6.3242696001       29.6713501786
  C         7.3164110980        6.1189300193       31.4512619152
  H        -8.5046353316       11.0912219900       23.8812337082
  H        -8.0907236926        9.5183446808       24.2436096530
  C        -9.0791632384       10.3814354508       25.9931962243
  S        -3.3619340706       14.7516434515       37.1630746422
  C        -3.0693252350       17.4165239987       37.6070592149
  H         2.6229623363        8.3004769834       10.4817460606
  H         2.9182849238        6.8335488602        9.7175008826
  H         2.2659486251        6.7496116752       11.4152301093
  H         7.7294610508        6.6860278624       32.2620937520
  H         8.1387383586        5.6095583630       31.1632911797
  H         6.5137024749        5.4680678844       31.8005438221
  H        -8.5396503009       10.3094539641       26.8711217610
  H        -9.8405211747        9.6267733812       25.9881633775
  H        -9.7165992917       11.2634054648       26.1475264494
  C        -3.9506811991       15.5627325565       38.6497365899
  N        -3.6556496121       16.8918862805       38.7136810579
  O        -2.7907590136       18.5354325896       37.3662815805
  S        -4.9723680726       14.8797145740       39.9718743503
  C        -3.7955677746       17.6430487762       39.9340474352
  H        -3.7654708442       18.7025039951       39.7426308386
  H        -4.8099305739       17.3933896564       40.2740020968
  C        -2.7000168790       17.2318429796       40.8844552851
  H        -3.0330442765       16.3603581057       41.4560626947
  H        -1.7155233617       17.1005724364       40.4263054289
  H        -2.3889774582       18.0676669987       41.5161410343
  H         7.5135900521       11.4687545501        4.0492570421
  C         7.9846297648       10.4541672672        4.0655681138
  H         7.1655187672        9.6778232878        4.1306656873
  C         8.9852798922       10.3381793835        5.1873491200
  C         8.6216481686       10.2823567382        2.6346393806
  C         8.4055874490       10.5656288165        6.5531915200
  H         9.4259263236        9.3336847301        5.2491741560
  H         9.8194987933       11.0054209104        5.0187506727
  H         8.0519446362       10.5819910384        1.7605140041
  H         8.8909828558        9.2616712361        2.4243465982
  H         9.5090164580       10.9063005822        2.5727869711
  C         7.5078233988        9.4096348824        7.0560519525
  H         9.2425701384       10.9285713382        7.2590196249
  H         7.7858745069       11.4480010927        6.3824884308
  C         6.6230733148        9.8346648413        8.2641366406
  H         8.1309731640        8.6287807823        7.4091104154
  H         6.8379119871        9.1901973178        6.2465879942
  C         5.4224818916       10.6949886713        7.8876292905
  H         7.3137600239       10.3229556700        8.9113259552
  H         6.3135049627        8.8741856692        8.7313654753
  C         4.1113092116       10.0828718554        7.3869224037
  H         5.1027107292       11.3561179438        8.6709540203
  H         5.6905424344       11.3600251362        7.0705900605
  C         2.9295227847       11.0316966072        7.0989745718
  H         3.8574207274        9.2819995349        7.9703719096
  H         4.3187948877        9.6544572018        6.4218538839
  C         3.3926396463       12.4040156258        6.4202637495
  C         2.5061543660       11.7497932368        8.3121825400
  C         1.8034471557       10.3473092955        6.2777631157
  C         3.0906821999       13.4802556288        7.1939068470
  C         3.7605181481       12.8224496474        5.0812400306
  C         2.6678584357       13.0426964317        8.4331801762
  C         2.1341290541       11.0966125253        9.4746659889
  H         2.3303131277       10.0094721572        5.4123741543
  H         1.4985736869        9.4268850750        6.8396762177
  C         0.6234806518       11.2197729587        5.8758804701
  S         3.4091551861       14.9999124692        6.4674531957
  C         3.8638641745       14.1810258728        4.9855467781
  H         3.8036640788       12.0677683781        4.3342980676
  C         2.3687803448       13.6455816768        9.5992384849
  H         2.2159506496       10.0405315940        9.4971868583
  C         1.6596293349       11.6924884091       10.5891770428
  H         1.1138286270       12.0439817749        5.3256104051
  H         0.1750969165       11.6111478451        6.7862186347
  C        -0.4704736297       10.4347490153        5.0962241744
  C         4.2820001977       14.9498791582        3.7440376075
  C         1.8458097797       13.0029887370       10.7289523155
  H         2.6321034015       14.7006299164        9.7342541714
  C         1.3079255559       11.3181774977       11.8354643143
  H        -1.4178700920       10.9314300526        5.3586120853
  H        -0.4882747552        9.3996085640        5.3253073747
  C        -0.2514906374       10.5268467005        3.5941648852
  C         4.2170843686       16.3402192876        3.5033381447
  C         4.8297806311       14.0875660413        2.6579722902
  C         1.4700658098       13.6614910879       12.0058554603
  C         1.3291686303       12.3262099110       12.7323652976
  S         1.2043739890        9.7560669764       12.5716466270
  H         0.5021109526        9.7965323736        3.3138093958
  H        -0.0800030740       11.5593251098        3.3773593212
  C        -1.4716456656       10.0747566906        2.8829045016
  N         3.8105596421       17.3149638403        4.4467646336
  C         4.5244822954       16.9260213416        2.3049662111
  C         5.2019540670       14.6799240221        1.4537863906
  H         5.0016769362       13.0146515268        2.7526821317
  C         0.1382161065       14.3287762716       11.9352152837
  C         2.5938690843       14.6203690207       12.4419060234
  C         1.0541409539       11.8245952578       14.0106717334
  C         0.8105435245       10.4958808397       14.0591309143
  H        -2.1127694812        9.4910248439        3.4714060431
  H        -1.9119205595       11.0205322990        2.5000702202
  C        -1.1506728910        9.0652343009        1.7008888661
  S         3.9505374475       18.7431832401        3.7969054900
  N         4.2149780687       18.2520931743        2.2646609214
  C         4.9601235111       16.1338677258        1.2328933950
  H         5.7260423436       14.1412092534        0.6910458834
  H         0.2337858495       15.2474107065       11.2944679398
  H        -0.3033197231       14.7729168092       12.8707851850
  C        -0.9619080481       13.4671248352       11.3387356654
  H         2.9018132593       15.3455311863       11.7688142271
  H         2.1368717087       15.2337041972       13.2382799217
  C         3.7089875731       13.9423526960       13.1497020971
  H         0.9456403650       12.4185221345       14.8788146296
  C         0.4947847610        9.6965954123       15.3129722553
  H        -2.1374846313        8.6200263418        1.4923214726
  H        -0.5491588075        8.1680479727        2.0617294162
  C        -0.5418121458        9.7246770306        0.4616741919
  C         5.1151917305       16.8090423374       -0.0306272446
  H        -0.8182602430       13.1040411706       10.2645687125
  H        -1.0096524388       12.5048248225       11.8492872564
  C        -2.1678142123       14.3262410005       11.2718866278
  H         4.0505057870       13.0712904358       12.6063328024
  H         3.3190570103       13.5373012298       14.0793690284
  C         4.7413225709       14.8345022447       13.7885771416
  C         0.4285942463        8.2337086791       15.3972840209
  C         0.1530354882       10.3704967869       16.5827635640
  H         0.4941446565        9.9508709502        0.5669940808
  H        -0.5686019843        9.0724731248       -0.3913627390
  C        -1.3288049365       10.9005777171       -0.0528699662
  H         5.1588696334       17.8732151810        0.0108057120
  C         5.2244689799       16.3390123547       -1.3421925782
  H        -2.0086019495       14.9577253849       10.4088919564
  H        -2.3961549940       14.9487150845       12.1332003621
  C        -3.4438645376       13.4520537424       10.9676249212
  H         4.3090012968       15.8356531595       13.9988755253
  H         4.8982523656       14.4031294193       14.8154194072
  C         5.8872411223       15.0081143117       12.8842722006
  N         0.6192988184        7.3521929052       14.3761586565
  C         0.0912053485        7.5835536646       16.5273813860
  C         0.0041289497        9.6844286164       17.7833479831
  H         0.0012055292       11.3973181329       16.6234216169
  H        -1.3360085112       10.8644406725       -1.1744950833
  H        -0.8667505585       11.8270061792        0.1797253996
  H        -2.3463069704       10.8444536564        0.2089593051
  S         5.4065270030       14.6884375864       -1.8309395978
  C         5.3825805060       17.3421411097       -2.4701367243
  H        -3.0755365239       12.5265394468       10.5274340538
  H        -3.9503344422       13.0867704302       11.8640094678
  C        -4.5524199393       14.0880605441       10.1069664145
  H         5.4683504721       15.2241917595       11.9048725781
  H         6.5107541350       14.1006224556       12.8754140322
  C         6.6982060020       16.2480432724       13.2580253390
  S         0.2800524494        5.8741687154       14.9005882112
  N        -0.0066051627        6.2181500488       16.4361148782
  C        -0.0927674707        8.2235318608       17.7834760670
  H        -0.1763845947       10.2307030203       18.7100259944
  C         5.6481909867       15.3566693786       -3.4026144947
  N         5.5699271127       16.6943090900       -3.6009161438
  O         5.2064717014       18.5976210543       -2.4010069396
  H        -5.0660063008       14.7068311710       10.8196284669
  H        -4.0940212523       14.7853192361        9.4278823230
  C        -5.4944086219       13.1153584647        9.4001236109
  H         7.6046032810       16.3760417041       12.5586380977
  H         6.0116915951       17.0349234761       13.0439137428
  C         7.2625513421       16.2815173843       14.7007061577
  C        -0.3362240839        7.4853893586       18.9433036584
  S         5.9843674232       14.4547098419       -4.8823799583
  C         5.3873805142       17.3300392401       -4.8927150101
  H        -5.1557471719       13.0106803172        8.3780041488
  H        -5.5031529624       12.1116561439        9.7805927419
  C        -6.8769424730       13.6463395134        9.3782354923
  H         7.9544617868       15.4234927516       14.8043623127
  H         6.4571124834       16.2157722638       15.4845352919
  C         7.9826556190       17.6041256299       15.0094237686
  H         0.1028217702        6.4668772786       18.8940123957
  C        -0.8982055157        7.8058657284       20.1842579949
  H         5.8852182656       16.8502828076       -5.7600932291
  H         5.8654577746       18.2897034160       -4.8327238691
  C         3.8622573618       17.5306878729       -5.1548639019
  H        -7.1884854109       13.4995436054        8.2926001882
  H        -6.8328449499       14.7047483245        9.6146627575
  C        -7.7675754218       12.8837270672       10.4581156836
  H         9.0176553009       17.4197540555       15.2647952892
  H         7.8359587643       18.2191709507       14.0938790074
  C         7.3669678396       18.4556783437       16.1113025092
  S        -1.3252486764        9.3502003844       20.7725712511
  C        -1.0544808585        6.6864645101       21.1942971098
  H         3.3377821776       17.3372828466       -4.2271303977
  H         3.5427741311       16.8145661833       -5.9289726282
  H         3.7155114926       18.5492201030       -5.4132994921
  H        -8.8055937063       12.8788576002       10.1223359900
  H        -7.5221471646       11.8692613914       10.7428203162
  H        -7.7539982422       13.5228161036       11.3202350614
  H         6.5888073057       18.0156586226       16.8139750094
  H         8.0928690832       18.9377552546       16.7396265937
  H         6.8138014775       19.2817222607       15.6703672756
  C        -1.6714708812        8.5661186371       22.3282346290
  N        -1.6861865037        7.2039744606       22.2481091867
  O        -0.9398987467        5.4483352782       20.9423067460
  S        -2.3293952969        9.2740556112       23.8429763273
  C        -2.0297441070        6.3083550510       23.3357923740
  H        -2.2749310304        5.2368179174       23.1107830452
  H        -2.9714348481        6.5988437454       23.7850380271
  C        -0.7948819678        6.2371344782       24.2145855188
  H         0.1177583663        6.3472109453       23.6141273063
  H        -0.7674344703        5.3611365656       24.7682242396
  H        -0.7318186958        7.0861159186       24.8938748492
