352
i =
  H        -3.1707029551       15.0444219705       16.9658032844
  C        -3.0146683503       13.9738245567       16.7039004086
  H        -3.9655818310       13.3913909583       16.6792358453
  C        -2.2666266267       13.2512131712       17.7611327545
  C        -2.3205640630       13.7238373812       15.4344019797
  C        -2.9283427083       13.2351994036       19.1424472901
  H        -2.1768966575       12.2504401778       17.3349994584
  H        -1.1851263465       13.6666692378       17.7569750715
  H        -2.8028342000       14.2802964072       14.5761403213
  H        -1.3330642125       14.1701510654       15.3573681947
  H        -2.2968888295       12.6617388130       15.2028077661
  C        -1.9677457314       13.4896004735       20.2101984478
  H        -3.4440489114       12.3164747478       19.3512015485
  H        -3.7666555288       13.9601627907       19.2822393551
  C        -2.4672057735       13.2049664737       21.5623443696
  H        -1.0876415686       12.8083219159       20.1321009992
  H        -1.5408799695       14.4656286249       20.0263446685
  C        -1.4372106267       12.7256482060       22.5890067029
  H        -3.0297907102       12.2705595063       21.5609686514
  H        -3.1284777393       13.9830249383       21.9200873549
  C        -0.2894080442       13.7209930450       22.7930104739
  H        -1.9013066287       12.5513923169       23.5388861439
  H        -1.0048712992       11.7203836450       22.3819841019
  C         0.9069382692       13.0551079115       23.4317898914
  H         0.0701070491       14.2535824627       21.8601134034
  H        -0.4872251001       14.6320420658       23.4521486321
  C         1.4244887041       11.7064205816       22.8505099781
  C         0.4632853789       12.3555445994       24.7128653473
  C         2.1154527471       13.9361265369       23.6267651355
  C         1.0206058537       10.5852099157       23.6019769501
  C         1.9853883502       11.2884619320       21.6160140129
  C         0.5616997116       10.9809132585       24.8454690836
  C        -0.0241538594       12.9514701788       25.8861489835
  H         2.2938115151       14.4618189097       22.7112746339
  H         1.9307213898       14.6242606778       24.4217130265
  C         3.3800366950       13.2605156803       24.1467539810
  S         1.2631328620        9.0870615231       22.8659872794
  C         1.9467849824        9.8882366356       21.4937247997
  H         2.3004408918       12.1246135474       20.8950429868
  C         0.1145260119       10.2778574664       25.9684326152
  H         0.1049203291       14.0060378573       25.8593553328
  C        -0.4410368626       12.2606346607       26.9768960246
  H         3.8039904070       12.6831698370       23.3139119419
  H         3.2098134197       12.5363061336       24.9652621131
  C         4.5496915367       14.2080965520       24.5407084862
  C         2.1838710010        9.1879243746       20.1617102729
  C        -0.3744850901       10.9018256681       27.0503699720
  H         0.0023097289        9.2595240569       25.9843390413
  C        -0.8283777026       12.6745824960       28.2203899228
  H         5.1830193490       13.5695456941       25.1178401211
  H         4.2026288945       14.9893065394       25.2384724307
  C         5.3200279533       14.8520525856       23.4408693402
  C         2.2612725076        7.7759999778       20.0285664471
  C         2.6088665418        9.9849965061       19.0299355358
  C        -0.7685938955       10.2185533800       28.3204210392
  C        -1.1004424070       11.5682095750       29.0352233895
  S        -0.9762110365       14.1973663471       28.9688430653
  H         5.7581291310       15.7399108010       24.0029221144
  H         4.6415902659       15.2634434921       22.6824229997
  C         6.4219004387       14.0067420804       22.7404539751
  N         2.1145059995        6.8519293189       21.0888676255
  C         2.5877601251        7.1472944839       18.8735325739
  C         2.8257095863        9.3638770601       17.8047258065
  H         2.5528952412       11.0416328766       19.0985441953
  C         0.4274691979        9.4984626083       28.9722071239
  C        -2.0893761811        9.3304731090       28.2333767173
  C        -1.4956798678       12.0641195292       30.2798091150
  C        -1.4332006122       13.3955396102       30.3582190355
  H         7.2159564295       14.6601073538       22.6312574259
  H         6.8229503148       13.2150645906       23.3207887772
  C         6.1833748785       13.4721522769       21.2557657410
  S         2.4704903996        5.3445688263       20.5012716385
  N         2.6533373994        5.7894945710       18.9051754607
  C         2.8115634912        7.8879419930       17.6368312630
  H         3.0147587626       10.0152460041       16.8742035559
  H         0.4688647533        8.5331597226       28.4891814642
  H         0.0716212749        9.0975438284       29.9124163279
  C         1.7494683020       10.2445278693       28.9758676563
  H        -1.9847720584        8.4242060705       27.5960337864
  H        -2.3295461963        8.8306021416       29.1738390949
  C        -3.2489940085       10.1648422929       27.8027419899
  H        -1.6243494940       11.3926478844       31.0848838297
  C        -1.7515149071       14.2005184982       31.5543697896
  H         5.4930757982       14.1635649756       20.8125513573
  H         5.7488349698       12.4390372023       21.1637662929
  C         7.4784200681       13.4033632656       20.4131539775
  C         2.9662243254        7.2390048265       16.3315891824
  H         1.9924303523       10.5093795377       27.9470619453
  H         1.6912525881       11.1810088173       29.4324185321
  C         2.8824119505        9.3656017409       29.5448884692
  H        -2.8953598176       10.7159985316       26.9981157359
  H        -3.6361644229       10.8227012127       28.5546416505
  C        -4.4250939484        9.3313370180       27.3800053328
  C        -1.8030606743       15.6125404174       31.6447159851
  C        -1.9340515645       13.4509363689       32.8624910671
  H         8.2850073755       14.0720030274       20.7582991709
  H         7.7949694327       12.3489547501       20.5073870113
  C         7.2939825890       13.6969244841       18.9719092286
  H         2.7167126350        6.2245478594       16.3832137048
  C         3.3970128026        7.6588338474       15.1159103228
  H         3.0539827209        8.5709968560       28.8531692197
  H         2.6624716106        9.0134514840       30.5150965318
  C         4.1062431407       10.2607170812       29.7539098970
  H        -4.0037882337        8.5881782125       26.6937165164
  H        -4.8667164231        8.8020373185       28.2101239516
  C        -5.4701304082       10.2693210938       26.6879316888
  N        -1.6247403150       16.5738512842       30.6264780639
  C        -2.1033676113       16.2352195506       32.9026701552
  C        -2.3081326021       14.0311771155       34.0651427729
  H        -1.9351173642       12.4034377123       32.9015055490
  H         6.8503996277       14.6009445198       18.8611900206
  H         8.1616335437       13.6626873355       18.4155326566
  H         6.5320357523       13.0277758057       18.5196746786
  S         3.6674374628        9.3384026259       14.5881731225
  C         3.4822454814        6.6507593097       14.0648669163
  H         4.1153660623       10.8255489534       28.8586510484
  H         3.7743474715       10.9724852304       30.4821606721
  C         5.4086219821        9.4319349319       30.0412106132
  H        -5.0979189907       10.7309483234       25.8482782519
  H        -5.6434720950       11.0829851869       27.3845809491
  C        -6.6392601154        9.4627692936       26.2592978278
  S        -1.7823095303       18.0337630488       31.2477202322
  N        -2.0979312562       17.6138781817       32.7989782572
  C        -2.3091864848       15.5366881041       34.1447967706
  H        -2.4549065420       13.3907841027       34.9372500541
  C         3.8547828254        8.6055071463       13.0225637444
  N         3.7903432584        7.2558835469       12.8985752051
  O         3.1993715792        5.4820752709       14.2333922469
  H         6.3422154807       10.0138295501       29.9246446200
  H         5.5730062243        8.6938574593       29.2277963381
  C         5.5679197116        8.8130848106       31.4874966647
  H        -6.3250067203        8.7518189361       25.5222032006
  H        -6.9990871401        8.8552819743       27.1144223068
  C        -7.7242231252       10.3844796038       25.8024166269
  C        -2.5827041675       16.2845390703       35.2345137295
  S         4.1883724876        9.5546965194       11.5029358475
  C         3.8555215055        6.5328831671       11.6250374230
  H         6.2687570181        9.5488049201       31.7801107185
  H         4.7233911869        8.9299944932       32.0833029255
  C         6.1094083562        7.4293296645       31.4556316585
  H        -7.6341538931       10.5547523871       24.7444229970
  H        -7.6279716394       11.3402442170       26.3777642931
  C        -9.0057973949        9.5706877336       25.9286675386
  H        -2.3456359300       17.3095590958       35.2414933378
  C        -3.2052753476       16.0121809453       36.3971459233
  H         4.5212541374        6.8150983721       10.8163242406
  H         4.2298724193        5.5626751243       11.8306057219
  C         2.4355412969        6.4406736658       10.9716278123
  H         6.5335802501        7.2333804152       32.4858871014
  H         7.0011920293        7.3939948222       30.8194590028
  C         5.1847739019        6.3112511964       31.0430286469
  H        -9.6514523601        9.7192865831       25.0081684126
  H        -8.7609893257        8.5195218787       26.0584470849
  C        -9.8566563290       10.0537175217       27.0814605708
  S        -3.8497826354       14.3897595856       36.7725967418
  C        -3.3298121200       16.9628712768       37.5248607466
  H         2.5577329449        6.1391726614        9.9030892426
  H         1.9524194599        5.5952592828       11.4927976139
  H         1.9473441193        7.3876928932       11.0579357529
  H         4.3806542512        6.6883146596       30.4536145462
  H         4.8187012613        5.8079834363       31.9403467499
  H         5.7114006104        5.6550770577       30.4447608312
  H        -9.1782966981       10.2485081441       27.8181848362
  H       -10.5275300503        9.2148483526       27.2955856918
  H       -10.3467367960       10.9554294354       26.7412871965
  C        -4.3121067061       15.0451700242       38.3519251476
  N        -3.9400127031       16.3678329207       38.5923438895
  O        -2.8911750527       18.1379080310       37.4674733202
  S        -4.7985777913       13.9529770086       39.6883381464
  C        -4.0144355735       17.0360488548       39.8828339846
  H        -4.5162427131       18.0492303137       39.6981637266
  H        -4.7011552368       16.5033970957       40.4897692392
  C        -2.6455676211       17.2620013306       40.5897817255
  H        -2.7673978225       17.6992253844       41.5872764171
  H        -2.2669162175       16.2685656408       40.7197387249
  H        -1.9415599455       17.8391188308       40.0492553446
  H         6.8333930132       11.0298549784        3.1421125986
  C         7.7832769283       10.4746595671        3.3601601390
  H         7.3597820019        9.4926437766        3.5620348934
  C         8.5386827110       10.8382835609        4.6219196626
  C         8.7285946826       10.3048198980        2.1562917242
  C         7.5709310600       11.0401133068        5.8154068523
  H         9.2662778070       10.1488954404        4.9817771711
  H         8.9682572412       11.8501986500        4.5788028088
  H         8.7463922251       11.2310665419        1.5485419576
  H         8.5162674687        9.4908138578        1.4773025991
  H         9.7265095520       10.1091298708        2.5198511658
  C         7.2509226809        9.6412168196        6.4399571822
  H         8.0976826153       11.5807431135        6.5973735408
  H         6.6119770768       11.4507395124        5.5653915846
  C         6.5626977041        9.7771729761        7.8269234551
  H         7.9565101179        8.8267118053        6.3872582615
  H         6.4441415647        9.2929367071        5.7908141232
  C         5.3428326446       10.6997137282        7.8334936790
  H         7.3017452878        9.9970108933        8.5791677140
  H         6.2908562248        8.7767080742        8.2623642495
  C         4.1468582828        9.9477159844        7.3287839873
  H         5.1588094663       10.9156033302        8.8881952928
  H         5.3941641636       11.6575471595        7.3164775500
  C         2.8445603388       10.8935511085        7.0801892011
  H         3.8509458751        9.1398396293        7.9691001738
  H         4.4214622246        9.4579095047        6.4254234282
  C         3.1949459580       12.2239713106        6.3867155951
  C         2.4124868522       11.5378917150        8.3015605155
  C         1.7555591077       10.0396123805        6.3996868849
  C         2.9651285638       13.3376350275        7.2314258182
  C         3.5435075283       12.5963703778        5.1173475500
  C         2.4870066752       12.8808358302        8.4508109326
  C         1.8860893540       10.8086307720        9.4048205125
  H         2.0813022205        9.6054136883        5.4930751084
  H         1.6045881504        9.0963442570        7.0388235081
  C         0.3959475063       10.7689882051        6.0822542683
  S         3.1922259462       14.8542707053        6.4589856457
  C         3.7065708640       13.9547604752        4.9821287771
  H         3.7595317787       11.8305336523        4.3158889067
  C         2.0663318623       13.4700569961        9.6133842377
  H         1.7838725562        9.7704056316        9.1964824806
  C         1.4967315203       11.4381832259       10.5470549304
  H         0.5864802861       11.7903172157        5.6872733293
  H        -0.1954494690       10.7691400793        7.0252849605
  C        -0.6543757175       10.0759046760        5.2063983435
  C         4.1360009117       14.6859548517        3.6747293056
  C         1.6151051228       12.7738536444       10.7120122999
  H         2.2470980970       14.5514962203        9.6272041046
  C         1.0868136558       10.9760149194       11.7683095819
  H        -1.5653503073       10.6789027387        5.3652059689
  H        -0.7960788789        9.0408907490        5.7098963972
  C         0.0375768124        9.9056349368        3.7956824067
  C         4.0367281536       16.0883833381        3.3508040787
  C         4.5233643793       13.8253442472        2.4748799500
  C         1.1676328493       13.4045897100       11.9708860809
  C         0.8678436050       12.0375153671       12.6444641924
  S         0.5715178453        9.4992741621       12.4539342807
  H         0.5970089779        8.9684229841        3.6721935761
  H         0.9227115476       10.4972894935        3.6770351659
  C        -0.9446405276       10.0237603978        2.6720188967
  N         3.6503343072       17.0305376037        4.3048559434
  C         4.3561363586       16.6066801524        2.1583813663
  C         4.8439445525       14.3825101348        1.2373241228
  H         4.5626145359       12.7583046242        2.5689261962
  C        -0.1032794529       14.2618282637       11.8371978509
  C         2.2456266629       14.1254531627       12.7977503437
  C         0.5759180495       11.6009532257       14.0127300978
  C         0.3926639672       10.2457143298       14.0691885612
  H        -1.6090605403        9.2003865993        2.7110318347
  H        -1.5115802931       10.9959320190        2.8557441920
  C        -0.2634555182       10.0328105831        1.3382834803
  S         3.5630630930       18.4475609426        3.5630125913
  N         4.0368712839       17.9585699112        2.0833285563
  C         4.6894678602       15.8228135767        1.0698512540
  H         5.0814535380       13.6740653698        0.4098301081
  H         0.1708498724       15.1528750856       11.1885539701
  H        -0.4841532867       14.6586153444       12.7689969795
  C        -1.2524759934       13.4502805156       11.1661944288
  H         2.7279797311       14.9477243133       12.1824262111
  H         1.7107926261       14.5718438471       13.6484992908
  C         3.3834906388       13.2519550395       13.2959260177
  H         0.3138189971       12.3606504695       14.7686382259
  C        -0.0626807340        9.4952182709       15.2966306006
  H         0.2960205315        9.1460513080        1.3332652452
  H         0.3805549956       10.9408230173        1.3281191403
  C        -1.2646913901        9.9179861578        0.1782788788
  C         4.8325557711       16.3943627435       -0.2254989824
  H        -1.0676690802       12.8892529899       10.2585950933
  H        -1.5415033938       12.6689151600       11.8661093105
  C        -2.5747021168       14.3225468574       10.9950595864
  H         3.7641025628       12.7785712027       12.3745154650
  H         3.0405242201       12.4184650273       13.8845003867
  C         4.3222798472       14.1484857018       14.1604017756
  C        -0.0530851011        8.0588968313       15.4571105792
  C        -0.4694771274       10.1958922816       16.5071404365
  H        -1.2339251972        8.8405892164        0.0014203042
  H        -2.2686331879       10.0550117222        0.4028098200
  C        -0.8484989891       10.6440935320       -1.1661354796
  H         4.7792446966       17.4281506153       -0.2000667899
  C         5.0780055404       15.9187572173       -1.4971396230
  H        -2.4225454589       14.9646749505       10.0936049571
  H        -2.8709179178       14.9599436683       11.8614202846
  C        -3.7415442337       13.4104614263       10.7107050773
  H         4.6384217177       14.9341064704       13.5311018656
  H         3.7090824992       14.7462623275       14.9301585433
  C         5.4785156363       13.4153709876       14.8074213160
  N         0.3080635085        7.2242477638       14.4191977142
  C        -0.2982754465        7.3882123941       16.6470915690
  C        -0.5875132640        9.5250721741       17.6933882364
  H        -0.6154116330       11.2429115452       16.5092319592
  H        -1.7591274168       10.7367412352       -1.8486012502
  H        -0.1047449927        9.9855850074       -1.7153992083
  H        -0.4335930120       11.6278791107       -0.7869070411
  S         5.3670732924       14.2459934263       -1.9495801894
  C         5.2990735657       16.9012629457       -2.5803236468
  H        -3.3897682146       12.7072057370        9.9870619771
  H        -4.1768236913       12.9338029960       11.5832766346
  C        -4.8550638397       14.1748166141        9.9363701850
  H         5.6378102187       12.4787785843       14.2971071611
  H         5.1547802116       13.0944301358       15.7600092459
  C         6.7937648042       14.3487798167       14.8677814427
  S         0.1013074196        5.6962860306       14.9107126849
  N        -0.1626757353        6.0344458954       16.5399512217
  C        -0.6125836288        8.0307494607       17.8149435898
  H        -0.7097695554       10.0587092967       18.6000023392
  C         5.5607481007       14.9089350366       -3.5768867616
  N         5.7032560098       16.2577651913       -3.6503667424
  O         5.1032696711       18.1225172539       -2.5268301604
  H        -5.3736534892       14.7827104019       10.6712092356
  H        -4.3447745547       14.8337059601        9.1792053162
  C        -5.8309354743       13.2315186532        9.1310566949
  H         7.6868208554       13.7668184984       15.1546171082
  H         6.9678686291       14.7941468643       13.8399987557
  C         6.6190785380       15.5657710652       15.7585762326
  C        -0.9495119124        7.3156831698       19.0177141108
  S         6.1729450516       13.9693831328       -4.9706889171
  C         5.9517635527       16.9022223235       -4.9412123862
  H        -5.3549295594       12.6990935980        8.2747623774
  H        -6.1895667945       12.5699758810        9.8994892645
  C        -7.0769554784       13.9660470305        8.6333629174
  H         6.9012461253       15.3303643612       16.7835077118
  H         5.5509042245       15.7897626796       15.7794519995
  C         7.5141364048       16.7132488776       15.1990117239
  H        -0.6309160115        6.2647043609       19.0883181919
  C        -1.4353149017        7.7148250546       20.2315908075
  H         6.7674275983       16.3511341426       -5.5343029626
  H         6.4388156699       17.8042725659       -4.6281120507
  C         4.6184283697       17.1213562113       -5.7146337584
  H        -7.5377701211       13.2491164480        7.9286643696
  H        -6.6743155368       14.8817706918        8.1699089944
  C        -8.0137346582       14.2233695474        9.7844864360
  H         8.4855056018       16.7338050096       15.6083866694
  H         7.6748267842       16.7592106028       14.1341568182
  C         7.1135150922       18.1248889414       15.5454018120
  S        -1.9993869362        9.3181386993       20.5748252687
  C        -1.6410634285        6.7420515078       21.3372133244
  H         4.5471894422       18.0123861951       -6.3411171614
  H         3.7435092447       17.2907643941       -5.0144218187
  H         4.4128974378       16.2227911902       -6.1905167910
  H        -8.0584433218       13.3627776856       10.4612156040
  H        -7.7189793209       15.0513704234       10.4944240477
  H        -8.9844673413       14.3985838810        9.4005392663
  H         7.9602547602       18.7676987247       15.2965899641
  H         6.2842789385       18.4594168623       14.8787611636
  H         6.7746859126       18.1582538907       16.6068657485
  C        -2.5431525417        8.7011244416       22.1450202343
  N        -2.3060998496        7.3271906024       22.3268633817
  O        -1.1719581389        5.6040831457       21.3204417271
  S        -3.3519276857        9.6525259157       23.3948785978
  C        -2.4629510940        6.8134745255       23.6328152973
  H        -2.4744315688        5.6776988660       23.6958540060
  H        -3.5015157931        6.9889810482       23.9382484297
  C        -1.2931073131        7.1965267073       24.5463781024
  H        -0.3693580979        6.5351870395       24.3853345587
  H        -1.7467280191        7.1963788416       25.5459594321
  H        -1.0161104557        8.2464710715       24.2800966413
