352
i =
  H        -3.5921468215       14.4463139948       16.0076752374
  C        -3.2749919133       13.4182374406       16.0675579182
  H        -4.1795707268       12.8648770994       16.3448273054
  C        -2.1436555682       13.2953761403       17.0560609393
  C        -2.6151937366       13.0204548555       14.7223241729
  C        -2.7273269372       13.2890662758       18.4371093921
  H        -1.6011086366       12.3733143962       16.8471166351
  H        -1.3815254075       14.0480394157       16.9300150526
  H        -1.5669924929       13.3659607570       14.6231713946
  H        -2.6232341046       11.9441222791       14.5258832167
  H        -3.1097628898       13.4131325720       13.8448343896
  C        -1.8565509130       12.6947461483       19.5656034528
  H        -3.7148094624       12.8842384329       18.4984085009
  H        -3.0539727806       14.3039665206       18.6717108622
  C        -2.2600569104       13.0869950966       20.9492100393
  H        -1.8078207296       11.5849357929       19.4020919578
  H        -0.8085460405       12.9636100038       19.4288807868
  C        -1.4010314685       12.4636836593       21.9978739679
  H        -3.1774280102       12.6807486933       21.1109866651
  H        -2.4385329883       14.1499249266       21.1059211064
  C        -0.2411111663       13.4359085866       22.3692162742
  H        -2.0011576545       12.2929463190       22.8727867335
  H        -1.1879180581       11.4778300992       21.6566233398
  C         0.9507759134       12.7583059882       23.1376280423
  H         0.0447025482       14.0042839326       21.5231032791
  H        -0.7904725657       14.1927885312       22.9734570014
  C         1.3348720831       11.3921704528       22.3853928539
  C         0.6059840551       11.9839697399       24.3062085669
  C         2.1096128142       13.6974701371       23.4612822698
  C         1.0987308175       10.2726674651       23.1692953767
  C         1.9396456061       10.9725587595       21.1805790178
  C         0.6441260898       10.5924256759       24.4393380108
  C         0.2078711486       12.6055507745       25.5505187835
  H         2.5190422367       13.8716294382       22.5153362715
  H         1.7630919625       14.6019214508       23.9961483422
  C         3.2218007648       13.0919132979       24.1900741321
  S         1.5487218400        8.7688923173       22.4177134954
  C         1.9370976744        9.6213081422       20.9731625650
  H         2.2375590277       11.7036499380       20.4437894618
  C         0.2107262945        9.9875496862       25.5765217407
  H         0.2525449228       13.6516244374       25.4826389537
  C        -0.1637914953       11.9487897791       26.6895855924
  H         3.5857215599       12.2195903371       23.6375725050
  H         2.9700776489       12.8380028513       25.1338084568
  C         4.4723789479       14.0268361742       24.1660400984
  C         2.4968657226        8.8559663868       19.7854898904
  C        -0.2295913849       10.6042373396       26.7514619756
  H         0.3339163179        8.8476279135       25.6144008435
  C        -0.6379748253       12.2734244003       27.9585609842
  H         5.1697275289       13.5791373583       24.8938842184
  H         4.2821194397       15.0067920296       24.6553491737
  C         5.2958755228       14.3554098783       22.9285439534
  C         2.3782935767        7.4533403466       19.5798594849
  C         2.8400549830        9.6757960732       18.5878293300
  C        -0.7272613385        9.8714398427       27.9512976638
  C        -0.9220452729       11.2049347872       28.7166329921
  S        -0.8904597625       13.8144532659       28.7586452781
  H         6.0183625006       15.1521383314       23.1062466687
  H         4.6940529985       14.8249443104       22.1352659973
  C         6.1066257853       13.1692309914       22.3927323522
  N         1.8977203088        6.4646286853       20.4111544243
  C         2.7075663091        6.9345858941       18.3020397645
  C         3.1274905864        9.1131573230       17.3258999538
  H         2.9941410869       10.7775470562       18.6974073067
  C         0.3627482579        9.0142703231       28.6264578943
  C        -2.0641655495        9.1811797692       27.6845594322
  C        -1.5233662174       11.6319012644       29.9095718632
  C        -1.5192982953       12.9563556554       30.0678558513
  H         7.1620056230       13.4300941080       22.3190800844
  H         6.0528635370       12.2364025363       22.8733266966
  C         5.6490738783       12.9251300900       20.9379946025
  S         1.9035141382        5.0122705234       19.6263484245
  N         2.7187842883        5.5445080825       18.3153959288
  C         3.1084006139        7.6361579207       17.1777848656
  H         3.5015297815        9.7451477905       16.5105088293
  H         0.5012008420        8.1248587536       28.0687798630
  H         0.0261199585        8.6176137810       29.5402881741
  C         1.7204180471        9.6650428260       28.8555117059
  H        -1.8061946612        8.3867651360       26.9954440421
  H        -2.3985623069        8.6642172381       28.5884654087
  C        -3.2669030970        9.9834301077       27.0711416586
  H        -1.8131170310       10.8826127259       30.6437850925
  C        -1.9511263477       13.6898889065       31.2736936902
  H         4.5553329377       12.9866730509       20.8683441984
  H         5.8949878659       11.9180785910       20.6358438478
  C         6.2431386251       13.7766425916       19.8268323237
  C         3.4096291004        6.9653118670       15.9375337729
  H         2.3339236249        9.3212988561       27.9729895099
  H         1.6786572639       10.7477611713       28.9193920879
  C         2.3364226012        9.1318391795       30.1326038163
  H        -3.0107410492       10.3486629434       26.0888629558
  H        -3.4794319736       10.9159575811       27.5919203032
  C        -4.6161541910        9.2230815260       26.8295148605
  C        -2.0177895641       15.0442915769       31.4613828584
  C        -2.1238270643       12.8346886507       32.4525609368
  H         5.8113205043       13.5063314140       18.8615988916
  H         5.9910814418       14.8027606689       19.9349774551
  C         7.7491973912       13.5582476344       19.6887790844
  H         3.2387912330        5.9103011777       15.9846259332
  C         3.7122436691        7.2831250738       14.6363012334
  H         2.4205184983        8.0975264179       29.9286660451
  H         1.6582657384        9.1187619375       30.9533874992
  C         3.7157761295        9.6952502191       30.3771908614
  H        -4.7668758498        9.2473374325       25.7569019459
  H        -4.6336222163        8.2024441771       27.1998008824
  C        -5.7325831605       10.0719445654       27.3151083071
  N        -1.8140809905       15.9993828187       30.5268256171
  C        -2.2742184329       15.5646533660       32.6803182022
  C        -2.4358382637       13.3763462714       33.6981586304
  H        -2.0440572019       11.7646049590       32.4957322653
  H         8.2257143206       14.2999690141       19.0864014264
  H         8.3333096398       13.5904815027       20.5859222499
  H         7.9937080267       12.5882086596       19.2382982015
  S         4.1675758309        8.8713432016       14.1300913519
  C         3.6738511226        6.2353713661       13.5940887857
  H         3.7767134430       10.6533195830       29.9558077129
  H         3.8880659326        9.9633263561       31.4327062913
  C         4.7852499695        8.7604252960       29.7974974468
  H        -5.5248614668       11.0815770982       27.0479593574
  H        -5.6030315956        9.9618303986       28.3932123348
  C        -7.0953069459        9.5999857783       26.8108884202
  S        -1.6982295303       17.4784180588       31.2070737271
  N        -2.1867457282       16.9554260021       32.6589573497
  C        -2.5521759725       14.8146649549       33.9160143819
  H        -2.4309732470       12.7228790234       34.5747830103
  C         4.2889131521        8.2061293025       12.5590247344
  N         4.0538226578        6.8588514017       12.4607020242
  O         3.4866844553        4.9839556582       13.7799314674
  H         5.5211504551        9.4527487064       29.4406839016
  H         4.3431146360        8.0971535889       28.9644822315
  C         5.3292580317        7.8048626645       30.8536199706
  H        -7.2418967947        8.5728059467       26.9714650030
  H        -7.7908128931       10.1676873352       27.4248195098
  C        -7.3715331142        9.8485928017       25.3292665713
  C        -2.9787859984       15.4932893435       35.1114189364
  S         4.6724114263        9.0421472850       11.1498479371
  C         4.1155926697        6.1074241167       11.1518278327
  H         5.6665618292        8.2239874738       31.8251454452
  H         4.4734467654        7.2132323988       31.1340342180
  C         6.4251193759        6.8916936048       30.2199040168
  H        -6.5998376845        9.2344131771       24.7541342666
  H        -6.9960845789       10.8738857662       25.1527269419
  C        -8.7449926913        9.5387561800       24.7215846577
  H        -2.6471759488       16.5424864636       35.0442480943
  C        -3.4221032493       15.0698469057       36.3404643991
  H         5.0376953566        6.3662028150       10.5625385993
  H         4.2525407045        5.0629769175       11.3364697365
  C         2.8299410260        6.2216459609       10.2756702757
  H         7.4618903870        7.3161118007       30.3216323859
  H         6.1726768073        6.7622627932       29.1864937389
  C         6.3736210478        5.4243856386       30.7430123448
  H        -8.8162968908       10.1316072569       23.8179714760
  H        -8.7373613905        8.4892371997       24.4274751593
  C        -9.9388221422        9.5875280098       25.7340223045
  S        -3.9504179212       13.4998205714       36.7397742104
  C        -3.6031389769       16.1111155559       37.4510936800
  H         2.8621881672        5.3577293835        9.5972209827
  H         1.8321499608        6.0570878772       10.7695333706
  H         3.0321319325        7.1480309590        9.7297144762
  H         6.8330359716        4.7076812361       30.0296775831
  H         5.3359933829        5.1208215307       30.8754038476
  H         6.8364603872        5.3706364697       31.7290479984
  H       -10.9129792732        9.3432579721       25.2937950117
  H       -10.1196407312       10.6017212062       26.1522833157
  H        -9.7829153433        8.8515023788       26.5487519930
  C        -4.6227848080       14.2609555649       38.2541916995
  N        -4.2655833861       15.5323065562       38.4586996940
  O        -3.2543438908       17.2654797722       37.3087260075
  S        -5.4709608724       13.4255629662       39.5531616872
  C        -4.3907457233       16.2273184597       39.7446050886
  H        -4.5823688565       17.2519581137       39.6800246177
  H        -5.2748382781       15.9203812377       40.2035526226
  C        -3.2148697135       15.8976481156       40.6903448908
  H        -2.3920026449       16.5826376705       40.4823123238
  H        -3.5536879433       15.8357147316       41.7394600655
  H        -2.7958287844       14.8944458221       40.4987136273
  H         6.9333490537       11.0406049796        2.9687231728
  C         7.5759042036       10.1745155175        3.1514881139
  H         6.8927179989        9.2808980366        3.0572055237
  C         8.4377654125       10.5441851133        4.3715440656
  C         8.4351647923       10.1200973940        1.9052973905
  C         7.7203354526       10.5322726975        5.7282812485
  H         9.2830043906        9.8799703592        4.4582864004
  H         8.9263096473       11.4620906771        4.1775830658
  H         9.0650350613        9.2585595010        1.9749711307
  H         9.2252796044       10.9410308748        1.9095612333
  H         7.9889253907       10.2622254795        0.9478940096
  C         7.2682900592        9.1849876357        6.1835102635
  H         8.3542846456       10.8518347039        6.5520146861
  H         6.8984634730       11.3054968250        5.6398208460
  C         6.6506070480        9.2237905774        7.5349549389
  H         8.1260771384        8.4760021815        6.1216355418
  H         6.5087410381        8.9316720174        5.3970367388
  C         5.3701423697       10.0725200665        7.5897093580
  H         7.2910038089        9.7033817244        8.2567574752
  H         6.5602983755        8.2216036867        7.9753919618
  C         4.1797365349        9.3108675155        7.0499968516
  H         5.1601298025       10.2216560215        8.7026264433
  H         5.5421743946       11.0277817338        7.1266608529
  C         2.9141552177       10.1554951750        6.7697373298
  H         4.0209749353        8.5073445831        7.7769318423
  H         4.4302725992        8.8208930788        6.1140921337
  C         3.2191023620       11.5465095498        6.0710170969
  C         2.4434955146       10.8883840671        7.9995250022
  C         1.8146782473        9.3586705909        6.0485407369
  C         2.9456480246       12.6534668579        6.9204833257
  C         3.7227812604       12.0187685096        4.7978165545
  C         2.4322692695       12.2466623209        8.1146551735
  C         2.0005522098       10.2047846769        9.1528769552
  H         2.3634222324        8.8853646026        5.1852822969
  H         1.4417402343        8.4788200137        6.5777701113
  C         0.5740000525       10.1036557936        5.4241188006
  S         3.2991265055       14.1941640469        6.2247994969
  C         3.9085402217       13.3608055853        4.7485696136
  H         3.9860120688       11.3502977121        4.0291834223
  C         1.9549875253       12.8446991301        9.2457078835
  H         2.0978060779        9.1233657908        9.0944455987
  C         1.5721356662       10.8197386361       10.3016081289
  H         0.6448540073       11.1868045567        5.4704312779
  H        -0.1509738768        9.9211859795        6.2448596681
  C         0.1403830842        9.5797595519        4.0333990480
  C         4.3279241348       14.1763702404        3.5485256195
  C         1.5587915184       12.1619590497       10.4267088082
  H         1.6382339565       13.9174506324        9.2581119150
  C         1.1782309679       10.4420336291       11.5458069157
  H        -0.3477696743        8.6081977823        4.2119022203
  H         0.9826234545        9.4229623684        3.3582587010
  C        -1.0037213185       10.4643977995        3.4747359068
  C         4.1127247587       15.5787810733        3.3843925318
  C         4.8157647200       13.4582469238        2.3812664249
  C         1.1213374534       12.8426190544       11.7012770629
  C         0.9410834498       11.5082588720       12.3541088699
  S         0.9939077065        8.8773409909       12.3033631149
  H        -0.5494967171       11.4181225294        3.0499252164
  H        -1.6024147593       10.8881515913        4.3203437251
  C        -1.9589015699        9.6864906956        2.4508370338
  N         3.7636073355       16.4916480599        4.4192217546
  C         4.2990097806       16.2387128898        2.2061282680
  C         4.9510639977       14.0906680016        1.1732443132
  H         5.0882126014       12.3831674670        2.3701342640
  C        -0.1483111788       13.7072658281       11.5544629872
  C         2.2584063419       13.5448086294       12.4442117996
  C         0.5643390313       11.0781594984       13.6567460474
  C         0.6281539145        9.7282749757       13.7537366824
  H        -2.5588167278        9.0448995637        3.0553680113
  H        -2.5997731874       10.5172775936        2.0526139533
  C        -1.2521498878        9.0414912316        1.3055348935
  S         3.5866511389       18.0228920122        3.8026708424
  N         3.9284499676       17.6031089539        2.2495425184
  C         4.6881853494       15.5726112189        1.0543906205
  H         5.2708326237       13.4890174068        0.3377896357
  H         0.2226106164       14.3700255549       10.8603761502
  H        -0.2988098136       14.1929039796       12.5308731109
  C        -1.4386088147       13.0060538671       10.8981870008
  H         2.4973149560       14.4212981023       11.8967558067
  H         2.0082920570       13.7639457347       13.4936278060
  C         3.6294533195       12.7972242209       12.6224746115
  H         0.2631624642       11.7678202558       14.4242236641
  C         0.2461644709        8.9451487029       14.9859973379
  H        -1.9298880875        8.4493574567        0.6725210939
  H        -0.3961363748        8.4017166847        1.6818415406
  C        -0.4937426030        9.9896847122        0.3711396272
  C         4.8848877678       16.3298435504       -0.1263552987
  H        -1.1731212419       12.5127930181        9.9996353220
  H        -1.7766267767       12.2339652378       11.5477623990
  C        -2.5774447835       13.9111714146       10.5731710299
  H         3.8902904785       12.3892771639       11.6248594105
  H         3.5808833265       11.9283010512       13.3379691055
  C         4.7116098084       13.7480405802       13.1938373506
  C         0.1494170196        7.5682841009       15.1678452452
  C        -0.0645723684        9.6878543475       16.2608504583
  H        -1.0543900315       10.9614512421        0.2857581183
  H         0.5489319029       10.2268592776        0.6927511684
  C        -0.4525688204        9.4709291904       -1.0904952866
  H         4.6486196149       17.4083390328       -0.0111304000
  C         5.2741400828       16.0175791556       -1.4174426905
  H        -2.3309401672       14.4874958711        9.6864385860
  H        -2.7702321039       14.6337638239       11.4423541358
  C        -3.8417611273       13.1722089212       10.1756321666
  H         5.5355354339       13.8509258798       12.4355113115
  H         4.3118476636       14.7131864420       13.4201666442
  C         5.3554008500       13.2589586067       14.4174730668
  N         0.2453013241        6.5648798981       14.1086712187
  C        -0.2064729297        6.9344658314       16.3712931186
  C        -0.4094646101        9.0955171745       17.4697980759
  H        -0.1613797423       10.7731226350       16.2714195353
  H        -0.3564327278       10.4104175036       -1.7092245777
  H        -1.3442022776        8.8814520402       -1.3959874907
  H         0.4980729054        8.9074820383       -1.1847300031
  S         5.7818947557       14.4748209155       -2.0773330406
  C         5.2182299461       17.1142493596       -2.4855292116
  H        -3.5457187871       12.2918554395        9.5183717686
  H        -4.4523407496       12.9276363947       11.1122838096
  C        -4.7883389921       13.9096522460        9.2877614349
  H         5.7053803633       12.2619229416       14.1439095454
  H         4.5756416591       13.1806380152       15.0972546727
  C         6.5980697990       14.1292400478       14.8589769733
  S        -0.0514872348        5.0841574715       14.7337409898
  N        -0.2393652767        5.5195509279       16.2767028094
  C        -0.4999831119        7.6548179903       17.5788520445
  H        -0.4928085933        9.7328334754       18.2865570124
  C         5.9630818461       15.3457382603       -3.6340883493
  N         5.5559908921       16.6222382299       -3.6646688357
  O         4.8476566489       18.2515449418       -2.2839385894
  H        -5.2077438656       14.7326631382        9.9194419684
  H        -4.3305784635       14.5768822373        8.4943948628
  C        -5.7764320420       13.0108616887        8.6057017611
  H         7.1795661719       13.7312434770       15.6450638222
  H         7.2891985707       14.2331055647       13.9655345722
  C         6.2031594173       15.5549904197       15.2022132813
  C        -0.8475064194        6.9202928433       18.7666128753
  S         6.4870564873       14.4687881743       -5.1022041616
  C         5.6724932191       17.3570883549       -4.8333838701
  H        -5.4124816575       13.0465158893        7.5960482655
  H        -5.8208170308       12.0690994867        9.1559579847
  C        -7.1661082541       13.6061794327        8.4893534439
  H         5.4394520347       15.5560621454       15.9534705749
  H         5.7793937915       16.0915674564       14.3280919523
  C         7.4621820993       16.2928891570       15.7942462671
  H        -0.6485355229        5.8444174714       18.7316102425
  C        -1.3384346105        7.2970798368       20.0184275431
  H         6.6063634626       17.0442178793       -5.3001919911
  H         5.7129631093       18.4118550716       -4.6661442564
  C         4.4320017118       17.0653004877       -5.7051947110
  H        -7.8166504520       12.9381563144        7.8781033779
  H        -7.2131133303       14.4980940677        7.7767777453
  C        -7.9002077452       13.8551939253        9.7943861591
  H         7.3562637176       17.0751264515       16.5835482103
  H         8.2324036261       15.6038452787       16.1126657252
  C         8.0502745442       17.1973778951       14.7383207268
  S        -1.7956755372        8.8759843918       20.4744416094
  C        -1.4642452135        6.2889308337       21.1068471379
  H         4.7223158698       17.1593250441       -6.7717530419
  H         3.6237837178       17.7437006738       -5.3698143276
  H         3.9974548028       16.0938549076       -5.6197266374
  H        -8.9729614358       13.9137368967        9.6816044605
  H        -7.6021187106       13.0352506402       10.4653887794
  H        -7.5739222382       14.7399530570       10.3074208456
  H         7.2611789644       17.8773106846       14.3973031091
  H         8.8794146840       17.7868824678       15.0943585158
  H         8.5415400648       16.4118315432       14.0733631077
  C        -2.1023211677        8.1893239939       22.1086066948
  N        -1.9271943745        6.8431425199       22.2240642819
  O        -1.0908563963        5.1287763917       21.0388443742
  S        -2.7063354518        9.1096694007       23.4928900230
  C        -2.0859443686        6.0843927492       23.4040641557
  H        -2.5208045831        5.1027799077       23.1131535988
  H        -2.7857317944        6.5404241838       24.1383288229
  C        -0.8589733373        6.0241230446       24.3190402144
  H        -0.1525593333        5.3206022881       23.9788554003
  H        -1.1124891640        5.5702617464       25.2892349478
  H        -0.2784573779        6.9966457625       24.2949294070
