352
i =
  H        -3.0893486090       15.4723545270       15.6452341365
  C        -3.0021039085       14.4386235979       15.8983894486
  H        -3.9127048942       13.9798706653       16.2158908229
  C        -1.9349664631       14.2258842795       16.9561815138
  C        -2.7668756016       13.7031963984       14.5817471203
  C        -2.5852111481       13.7170522012       18.2555972043
  H        -1.1791084846       13.5738851955       16.6108602487
  H        -1.4719136168       15.1593298587       17.0865672490
  H        -1.7379894654       13.3827991160       14.4649484322
  H        -3.5272607484       12.8454671424       14.4101517520
  H        -2.9442157657       14.4182564516       13.7756106250
  C        -1.6529734617       13.5102273928       19.3892385642
  H        -3.0051975577       12.7733562296       17.9987490867
  H        -3.4257964731       14.3785175861       18.4147343688
  C        -2.2072475779       13.5414456005       20.8064671848
  H        -1.1868776959       12.5194559130       19.2813746146
  H        -0.8456807804       14.2335830195       19.3145276390
  C        -1.1879439619       13.1030891601       21.7584230042
  H        -3.0570092990       12.9098741063       20.8096405427
  H        -2.7326360688       14.4587716304       21.0903614888
  C        -0.0164654484       14.0939762398       21.8306499244
  H        -1.6124909484       12.9221082737       22.7532388145
  H        -0.8864232432       12.1078409929       21.4443657477
  C         1.2130065962       13.4526799067       22.6291748763
  H         0.3179827511       14.3739572289       20.8432071399
  H        -0.2301049020       14.9634413757       22.3571097779
  C         1.5487992248       12.0834328445       22.0014130005
  C         0.8177689023       12.8253244951       23.9224502413
  C         2.4971908195       14.3082190977       22.5992600867
  C         1.4423092691       11.0360539823       22.8627586597
  C         2.1619092207       11.7064405661       20.7659757121
  C         0.9195471766       11.4678515479       24.0668948797
  C         0.2375201965       13.3766992569       25.0578930542
  H         2.7747612298       14.4593450880       21.5703388541
  H         2.2105017840       15.3969095825       22.9027071907
  C         3.5419351675       13.6790560087       23.5182660152
  S         1.7307273573        9.4991516074       22.1113449379
  C         2.2759711067       10.3341655774       20.6341703197
  H         2.4602447254       12.5109756758       20.1055201888
  C         0.5229523554       10.8550271739       25.1939206213
  H         0.1477305034       14.4665589950       25.0253075357
  C        -0.0764007366       12.7611562157       26.2357461114
  H         3.8061224600       12.6125967426       23.1974149313
  H         3.1611108785       13.6120861518       24.5125589910
  C         4.8518435755       14.5049211094       23.6782734889
  C         2.7399118929        9.7276504490       19.3710708061
  C        -0.0783238596       11.4122290578       26.3034839771
  H         0.7328378161        9.8480944876       25.1966453066
  C        -0.4712118856       13.0909786820       27.4902295888
  H         5.6388444035       14.0692015007       24.3082405949
  H         4.5049081029       15.3825336313       24.2894275048
  C         5.4881607990       14.9357822196       22.3538850623
  C         2.5297511151        8.3635985713       19.0352646890
  C         3.2925908403       10.5614901024       18.2905054532
  C        -0.4418170056       10.6652591255       27.5196560051
  C        -0.6787261478       12.0390267432       28.2812910131
  S        -0.8309959020       14.5407164097       28.2940693722
  H         6.0703499050       15.8641720500       22.5129762637
  H         4.7666207580       15.4605312606       21.7234439242
  C         6.2772425199       13.8485933976       21.7179720817
  N         2.0084413511        7.4186661614       19.8799934001
  C         2.9717600907        7.8511066801       17.8136780655
  C         3.6742469532       10.0447125194       17.0904773325
  H         3.5633087074       11.5980173063       18.5842893921
  C         0.6378338399        9.7858751657       28.1812609503
  C        -1.7447103221        9.8726707075       27.3052984492
  C        -0.9903316735       12.3513144991       29.6257240354
  C        -1.0836083454       13.7015370005       29.7733277080
  H         7.3333601318       14.0332312372       22.0210389502
  H         6.0256359451       12.9267771769       22.2025486212
  C         6.1005867199       13.6500937513       20.2153909728
  S         2.1546306160        5.9392470987       19.1920634142
  N         2.8760739651        6.4711163190       17.7449213153
  C         3.4634005999        8.6439367704       16.7813490297
  H         4.1103752118       10.7534889656       16.3534073752
  H         1.0063979313        9.0451189903       27.4444112610
  H         0.2958468947        9.1548984488       29.0481397636
  C         1.8737066114       10.4739383419       28.5130411451
  H        -1.5471781305        8.9784663190       26.7662264468
  H        -2.0360240795        9.3147639248       28.2630037783
  C        -2.9393144085       10.6541144982       26.5791368916
  H        -1.0057535491       11.5535164536       30.4011590659
  C        -1.3946020761       14.3451499088       31.0991577080
  H         5.4349855911       14.4074843920       19.8452468809
  H         5.7447911326       12.6519156398       20.1059196618
  C         7.3857557367       13.6648550352       19.3799136070
  C         3.5110560146        8.0195530595       15.5220925520
  H         2.3589057114       10.5400946200       27.5590331820
  H         1.7957701454       11.4236931669       28.9099469643
  C         2.7445403121        9.8239061674       29.5803260575
  H        -2.7262986040       10.9926857062       25.5644533456
  H        -3.1826868697       11.6000980395       27.0806491147
  C        -4.3120324565        9.9878409082       26.4770957319
  C        -1.6556284731       15.6774512716       31.3368449266
  C        -1.6781056478       13.4757143436       32.2301974113
  H         7.8287057615       14.6416708597       19.3876988808
  H         8.1374594543       12.9179233378       19.6329389222
  C         6.9019886782       13.5821407974       17.9186709662
  H         3.4259821226        6.9706047657       15.4973321850
  C         3.9449743899        8.3447748431       14.2563131670
  H         2.8712062250        8.7315877779       29.3516406616
  H         2.2075017307        9.9568567014       30.5383342678
  C         4.1660788505       10.4746451609       29.6587533222
  H        -4.0553151561        8.9809377480       26.0818056980
  H        -4.7654195170        9.9928985625       27.4204112507
  C        -5.1118672129       10.7103946595       25.4870919526
  N        -1.5257434942       16.6985524866       30.3837195387
  C        -1.9878585445       16.1991221855       32.6048775823
  C        -2.0412624387       13.9545990645       33.4470190764
  H        -1.5913450627       12.4090557709       32.0639799417
  H         6.1854959927       14.3559346414       17.5722380993
  H         7.7100967718       13.7178071001       17.1958362522
  H         6.4913985771       12.6004965472       17.8053439592
  S         4.3488739395        9.8819329704       13.8035060568
  C         3.9079230072        7.3134351355       13.1816465234
  H         4.1794558626       11.3955607123       28.9892396342
  H         4.3157105371       10.7706259601       30.7220959543
  C         5.4160087115        9.6409489007       29.2248572665
  H        -4.6121933435       10.7095170960       24.4838839579
  H        -5.2490537067       11.7522019671       25.8580703641
  C        -6.4610270595       10.1407861188       25.3231198548
  S        -1.7812801998       18.0948668447       31.1756272193
  N        -2.1192156278       17.6065843057       32.6826046471
  C        -2.2835065718       15.3735229058       33.7350504435
  H        -2.4030898777       13.3435303307       34.2634213670
  C         4.6575043627        9.2284185046       12.2101632961
  N         4.4680608961        7.8804782133       12.0770457973
  O         3.6784670267        6.1029955063       13.4240606950
  H         6.0483084607       10.3965003611       28.6843357615
  H         5.2108841527        9.0136656786       28.3482120997
  C         6.1839953203        8.9945409889       30.3586794140
  H        -6.2374540047        9.1480814457       24.9169303860
  H        -6.9279378007       10.0091961964       26.3440804246
  C        -7.3977802664       10.8979076689       24.5334390640
  C        -2.7682758449       15.9672884688       34.9308677828
  S         5.0741287734       10.2235960741       10.8045026280
  C         4.6313045780        7.1262240628       10.8564456673
  H         7.1863503196        8.7668516760       30.0280260244
  H         6.3151406142        9.6936934375       31.1734321283
  C         5.4958330296        7.7378005894       30.9107601847
  H        -6.9157035273       10.8967802080       23.5854980542
  H        -7.5346517965       11.9252249290       24.7963515727
  C        -8.7675336680       10.1688048415       24.4097620257
  H        -2.4781355585       16.9831930873       35.1043933327
  C        -3.3226031708       15.4521008143       36.0814370387
  H         5.5056484189        7.4562912829       10.2668447246
  H         4.7342818730        6.0829800026       11.0478218552
  C         3.3624755895        7.2369072351        9.9799133394
  H         5.1081606282        7.1356799210       30.0868098606
  H         4.6475121898        8.0368567320       31.5211681704
  C         6.4349324919        6.9285023524       31.7917470157
  H        -9.3243362176       10.5105960929       23.5136377681
  H        -8.4931229103        9.1237078617       24.2114161098
  C        -9.5953822274       10.2224875009       25.7638435443
  S        -3.8908486369       13.8320603456       36.4030306407
  C        -3.5052996921       16.3739277111       37.2080371981
  H         3.1259317536        6.2244110261        9.7038309005
  H         2.5201321687        7.6074901309       10.4884510295
  H         3.5471894213        7.8222548240        9.0563050062
  H         6.5909678788        7.5221823720       32.7498406840
  H         7.3907134239        6.7070942527       31.2674457017
  H         5.9240298977        6.0099339894       31.9607536196
  H        -9.9498058807        9.2263658030       25.8232229130
  H       -10.4476673710       10.8004016793       25.5575375296
  H        -9.1370945601       10.5562581644       26.6547515526
  C        -4.4721513597       14.5112917815       37.9582829647
  N        -4.2177249840       15.8146302349       38.1748334879
  O        -3.1832780726       17.6052858812       37.1985822910
  S        -5.1657670358       13.6419443416       39.2483769837
  C        -4.4716561418       16.4989118955       39.4074991286
  H        -4.4232144097       17.5459302864       39.2697485273
  H        -5.5598212076       16.3339526890       39.7125087021
  C        -3.3344044971       16.2420882690       40.3536815722
  H        -2.3982605786       16.7760049065       40.0733601518
  H        -3.5347319038       16.4974740596       41.4759026296
  H        -3.0303070779       15.2114240507       40.3820784622
  H         7.5436528129       11.8673738869        3.0050570982
  C         8.0010508204       10.9513867401        3.0839323672
  H         7.2029163159       10.2591089220        3.2527015931
  C         8.9418514279       11.1209714806        4.2712591792
  C         8.7105744358       10.5411494719        1.7756856946
  C         8.1691546248       11.3678159889        5.5458440379
  H         9.6427074275       10.2890016907        4.2403562615
  H         9.5108202809       12.0097224591        4.0266519440
  H         9.3436712157       11.3807622062        1.4444493282
  H         7.9260598031       10.3098047599        0.9761234130
  H         9.3880233155        9.6585005704        1.7771562857
  C         7.4484207332       10.1313596128        6.0591291785
  H         8.8826847041       11.7262884074        6.3702404495
  H         7.5090566473       12.1515645258        5.3547264803
  C         6.7165864587       10.2443107976        7.3963262375
  H         8.1577701323        9.3036923173        6.2026612099
  H         6.7314002645        9.6936161742        5.3689093996
  C         5.3791299514       11.0186199303        7.1887634007
  H         7.3659300234       10.7339394197        8.0742426389
  H         6.4284182759        9.3083870093        7.8196139192
  C         4.2458122439       10.2395534211        6.6860777036
  H         5.0217518530       11.4687286132        8.0860961944
  H         5.6023442303       11.7681180338        6.4004453599
  C         2.9019054238       11.0704559436        6.6104716030
  H         4.1256368620        9.3425841718        7.2583582554
  H         4.5857135436        9.7790929228        5.7646605176
  C         3.1843758356       12.4943281147        5.9680974237
  C         2.5338367164       11.6855293386        7.9285267249
  C         1.7146181653       10.2974392728        5.9852367624
  C         2.9641691941       13.5760405889        6.7733216582
  C         3.6696094082       12.9484507496        4.6975641895
  C         2.5552365512       13.0498993128        8.0107326633
  C         2.1761338594       10.9530127754        9.0672094468
  H         2.1545626194        9.6849218660        5.2069793279
  H         1.3443352074        9.5531353096        6.7063310766
  C         0.5375836856       11.1471283287        5.3535983799
  S         3.3527080165       15.1255834621        6.1368612013
  C         3.9287471896       14.3369691571        4.6870712160
  H         3.8196310344       12.2749680148        3.8869691355
  C         2.3467585890       13.5671653597        9.2873013557
  H         2.2970898693        9.8851513765        8.8236122511
  C         1.8425120639       11.4840089121       10.2463476358
  H         0.7137751657       12.1606334915        5.3732118647
  H        -0.2635192042       11.1042462374        6.1035146260
  C         0.0571805204       10.5661013306        4.0064253466
  C         4.4826534906       15.0496052080        3.4958563766
  C         1.9431757613       12.8505023544       10.3864158370
  H         2.5308060244       14.6098404723        9.4399709871
  C         1.3557284215       11.0906867747       11.4930832322
  H        -0.8753007617       11.1118102400        3.9014890475
  H        -0.3317401470        9.6080710669        4.1814056039
  C         1.0598371407       10.5365115494        2.8751934601
  C         4.4578256115       16.4252989553        3.2471435049
  C         5.0010003408       14.2518706948        2.3484371852
  C         1.5761361980       13.4524114081       11.6881855093
  C         1.2062818971       12.1361647102       12.3667753177
  S         0.9372071236        9.5871094310       12.2232098123
  H         1.4981696524        9.5462187917        2.7491725921
  H         1.8416391202       11.1406843849        3.1980369993
  C         0.3860191366       10.9043488559        1.5023105737
  N         4.1175788518       17.3605496014        4.1990373540
  C         4.7586265804       16.9894294378        2.0407351813
  C         5.3320522607       14.8038961674        1.0858204339
  H         5.1210892616       13.1764898218        2.4268835912
  C         0.3903372872       14.3397657064       11.5320477088
  C         2.7856710018       14.1587545098       12.3678242341
  C         0.8118504709       11.7051993053       13.6305421508
  C         0.6986616556       10.3460247412       13.7235023736
  H        -0.7257786468       10.6543608582        1.6204027571
  H         0.3946647472       11.9227734572        1.3178509159
  C         0.8294556867       10.1016372598        0.2306073355
  S         4.0235876286       18.8040884718        3.4716753701
  N         4.4739550231       18.3285527657        1.9975354897
  C         5.2230439609       16.2925819681        0.8727825334
  H         5.8814208035       14.1876390373        0.4195584338
  H         0.7350433179       15.2039084089       10.9578080315
  H         0.1006452508       14.7897269058       12.3991356028
  C        -0.8817409512       13.6466993399       10.8708913693
  H         3.0877870628       15.0830119841       11.8635538648
  H         2.3390979169       14.5636250243       13.3074979209
  C         4.0369449601       13.2649790263       12.5954695249
  H         0.7829242912       12.4265927222       14.3504259359
  C         0.3651273532        9.5548062515       14.9290828502
  H         0.7170750429        8.9912830183        0.2949953093
  H         1.8528928914       10.3088222227        0.0467583242
  C        -0.0726110358       10.6141174656       -0.9180231008
  C         5.4912614097       17.0803304173       -0.2800660295
  H        -0.8156201024       13.1434624631        9.9036165499
  H        -1.2528638545       12.9288603289       11.5479632449
  C        -2.1252423247       14.4823855381       10.7634484305
  H         4.5509502167       12.9296130565       11.6628428147
  H         3.7062394563       12.3329694355       13.1014384788
  C         4.9857986037       13.8660748753       13.6797376137
  C         0.2387484857        8.2050235842       15.0031715374
  C         0.1610514189       10.3757243090       16.1836903896
  H        -0.2356558895       11.7150882570       -0.7397120373
  H         0.5479424246       10.5059164394       -1.8051238438
  C        -1.3290516727        9.7992924536       -1.1021549414
  H         5.3911803353       18.1601380207       -0.2350429720
  C         5.5349375838       16.6599593630       -1.5716919650
  H        -1.8195531583       15.3335875489       10.0607864394
  H        -2.3157018888       14.9767876178       11.7130626099
  C        -3.4179560236       13.7548225848       10.3712098338
  H         4.3574814504       14.4160901813       14.3971744179
  H         5.3791308021       12.9573012892       14.1931910546
  C         6.1572960033       14.6336213814       12.9768106854
  N         0.5068665905        7.2239583225       14.0376917725
  C        -0.0750121586        7.5815627968       16.2072312695
  C        -0.2147035754        9.6901885786       17.3127751143
  H         0.2567311539       11.4270395041       16.1747737967
  H        -1.6516036305        9.5430159634       -2.0801564267
  H        -2.1152087597       10.4495373360       -0.8033902126
  H        -1.3072836482        8.9022249885       -0.5079845350
  S         5.8908614817       14.9930323551       -2.2139570388
  C         5.4287705539       17.7141653878       -2.6819641502
  H        -3.1483739677       12.9668884885        9.6710150650
  H        -3.7883682768       13.3957679224       11.3516605069
  C        -4.4861518249       14.6603440229        9.7502910144
  H         5.8629649691       14.7869126838       11.9071433875
  H         7.0599337668       14.0612388304       13.0607272191
  C         6.4620447445       15.9781604536       13.6052245709
  S         0.4486228990        5.7861882764       14.6588460651
  N        -0.0682996088        6.1855073826       16.1106932445
  C        -0.4976121054        8.2511198631       17.3676409220
  H        -0.2913027791       10.2456593143       18.2089338398
  C         5.9354797587       15.7903846197       -3.8348482579
  N         5.8681846666       17.1741397843       -3.8240698572
  O         5.3100229203       18.8892422870       -2.5381679571
  H        -4.5396261820       15.7038231799       10.1124937646
  H        -4.1151663881       14.7788150123        8.6920707011
  C        -5.8662141696       13.9191636246        9.9965117553
  H         5.9094831981       16.7676139374       13.2471234455
  H         6.0570198615       15.8316803748       14.6438307045
  C         7.9009225910       16.4311992710       13.4880219293
  C        -0.8726247430        7.4902307754       18.6048759457
  S         6.5382834558       14.8921102372       -5.1938327934
  C         6.0234353752       17.9917104624       -5.0946382624
  H        -5.8764745381       12.9084996196        9.6574988856
  H        -6.0099529974       13.7670244414       11.0204155533
  C        -6.9813494551       14.7176873818        9.3393497548
  H         8.0683956490       16.3357627898       12.4608171966
  H         8.6841700051       15.8582524155       14.0959672850
  C         8.1201268527       17.8336751681       13.9660730255
  H        -0.7717739514        6.4739497091       18.3977746956
  C        -1.2817453641        7.7819506963       19.8679270333
  H         6.5494024444       17.5224513921       -5.8824242750
  H         6.4832751939       18.9944600182       -4.7594297083
  C         4.6452275740       18.2650198779       -5.6468183392
  H        -7.0952942724       14.4140885468        8.2438139751
  H        -6.8879785087       15.7943677232        9.3968985632
  C        -8.3091067198       14.3549082622       10.1062195291
  H         9.1495144852       18.1371304175       13.8953905795
  H         7.6026648175       18.5608441939       13.4097538247
  C         7.6242344477       18.0233430538       15.4183801731
  S        -1.5101016771        9.4482209479       20.5163315978
  C        -1.4334223623        6.7147819554       20.8168978844
  H         3.8963491383       17.8183848270       -4.9933005198
  H         4.6063740417       17.7928952939       -6.5894891639
  H         4.4753436055       19.3222058755       -5.7704551270
  H        -8.7315825093       13.4705449747        9.8005565505
  H        -8.1674343645       14.2275452493       11.1187416699
  H        -9.0282224689       15.1577989984        9.8946709005
  H         7.9047240441       17.1479139708       15.9928637553
  H         8.1423078477       18.8898769567       15.8538504576
  H         6.5435001796       18.1486850731       15.4693821778
  C        -2.0338467213        8.5921751060       21.9189327862
  N        -1.9057706836        7.2284651332       21.9522000756
  O        -1.3068825051        5.5051356399       20.6374419319
  S        -2.6352756237        9.3610725332       23.3759265194
  C        -2.2936611577        6.4209054093       23.0915237807
  H        -2.6166520431        5.4619891225       22.7484858739
  H        -3.0901818075        6.7928322268       23.7229543986
  C        -0.9955292686        6.2676888932       23.8315218329
  H        -0.8871027174        7.1383589076       24.5139985797
  H        -0.1459069019        6.2214182367       23.1232996188
  H        -1.0245107884        5.3091863477       24.4066442079
