352
i =
  H        -3.9790489113       14.4368186187       16.0671736830
  C        -3.6208452605       13.4036163377       16.1722669552
  H        -4.4549116020       12.7165943177       16.4314213428
  C        -2.5322165932       13.4605990629       17.2898088231
  C        -3.1589596977       12.8609385406       14.8286243140
  C        -3.2417304998       13.4494703098       18.7124017669
  H        -1.9771719923       12.5564611390       17.2181123459
  H        -1.9112697096       14.2478439239       17.1901382151
  H        -2.6715310026       13.5176736572       14.1620402051
  H        -2.3753248853       12.1219777258       15.0701314637
  H        -4.0111443443       12.3907426597       14.4538536206
  C        -2.1152612676       13.3910177899       19.7996158514
  H        -3.7898557630       12.4801169472       18.8646084995
  H        -3.8834859193       14.3546210546       18.8149317630
  C        -2.6037810334       13.4953393565       21.2369584146
  H        -1.6699007162       12.3856210593       19.5006509533
  H        -1.5127960436       14.2416287595       19.5711304593
  C        -1.4798690323       12.8543973619       22.0274493136
  H        -3.4809598463       12.8762456846       21.4095217695
  H        -2.8260215092       14.5133789342       21.5013838869
  C        -0.3327988538       13.7549904423       22.4157778695
  H        -1.9332287693       12.5063196962       22.9857556759
  H        -1.1153289309       12.0217264910       21.4055404221
  C         0.8488456946       13.1068613286       23.2346495624
  H         0.1012347069       14.0490519237       21.4605247535
  H        -0.7749811977       14.6020964834       22.9567128272
  C         1.2172474839       11.7909793323       22.5853218942
  C         0.4054224605       12.4042299095       24.4857211560
  C         2.1628246234       14.0023940762       23.4033370883
  C         1.0478331334       10.6732306327       23.3825827239
  C         1.7463593686       11.4745759272       21.2976312308
  C         0.5340630817       11.0812137492       24.5756623075
  C         0.0353150841       12.9434848428       25.6576107464
  H         2.5773301219       14.3084584325       22.4468425413
  H         1.8916408602       14.7432074610       24.1712189749
  C         3.3102799397       13.0948079252       23.9569882204
  S         1.4698397731        9.1488066426       22.6224333954
  C         1.9108549221       10.1184675055       21.1699150752
  H         1.8849914218       12.1726870846       20.5149208550
  C         0.2173718115       10.4270783020       25.7345577117
  H        -0.0904025798       14.0061883603       25.6560349588
  C        -0.1710693635       12.3223202102       26.8676040026
  H         3.5111274986       12.2289700812       23.3091487313
  H         2.9467244966       12.5776344630       24.8270792559
  C         4.6161703098       13.7351574725       24.4484656312
  C         2.3171438546        9.3287637896       19.9275030740
  C        -0.1329561127       10.9962743245       26.9792270782
  H         0.3141562258        9.3885645645       25.7642147013
  C        -0.4848943606       12.7378862868       28.1047678695
  H         5.2648832474       13.0130868383       24.9956202828
  H         4.3854722537       14.4693296764       25.2493954952
  C         5.3302141686       14.4345814738       23.3409089409
  C         2.2155365964        7.9271386148       19.6406564107
  C         2.7972110901       10.2083696127       18.8365711803
  C        -0.4496119200       10.3121536879       28.2120239760
  C        -0.6927528938       11.6160669196       29.0008160440
  S        -0.8709249457       14.2928684226       28.8023585962
  H         6.0168913632       15.1556546999       23.7959765288
  H         4.5768660286       15.0118666277       22.8210116169
  C         6.0411952843       13.6466126926       22.2971411029
  N         1.9383433803        6.9783515276       20.6059776547
  C         2.4413667440        7.3668187897       18.3842631040
  C         3.0762011782        9.6444304796       17.5836130446
  H         3.0164866280       11.2157972390       18.9960947284
  C         0.7278038840        9.4617051325       28.8442833616
  C        -1.6791959166        9.4550966854       28.0597272455
  C        -1.0844489362       12.0037287953       30.2803362255
  C        -1.1584239027       13.3666390390       30.3442003904
  H         6.9667931787       14.0199404395       22.1650548932
  H         6.1557672294       12.5651718085       22.6686478208
  C         5.4178733351       13.6991443144       20.8804368439
  S         2.0037890999        5.4790039901       19.8786169445
  N         2.2751747710        5.9875431221       18.3454199912
  C         2.9152001184        8.1819837615       17.2792796266
  H         3.3923955017       10.2573441659       16.7241628124
  H         1.0474889756        8.6617794853       28.2810534200
  H         0.3899649583        8.9076936025       29.6789857279
  C         1.8208093383       10.3793073613       29.3713851101
  H        -1.4593496521        8.6165370641       27.4018801968
  H        -1.9137183325        9.0318064846       29.0554382695
  C        -2.9440878471       10.2401116039       27.6019981326
  H        -1.1868696053       11.1823005222       30.9648915009
  C        -1.3898576538       14.2053061720       31.6010803488
  H         5.5382631286       14.6503130848       20.4972660799
  H         4.3519650358       13.4781426998       20.8178934617
  C         6.1697000719       12.7093731725       19.9225215548
  C         3.1790261248        7.5546185351       16.0503309199
  H         2.3615722819       10.9465133787       28.5871763148
  H         1.4881639789       11.1863522606       30.0455452748
  C         2.7895947533        9.4815046437       30.1402116634
  H        -2.7966189068       10.7501459742       26.6257081184
  H        -3.2243557805       11.1126799438       28.2425441229
  C        -4.1843421917        9.3802739054       27.3596700620
  C        -1.4993864195       15.6021889733       31.7157618463
  C        -1.5628730954       13.4666118789       32.8571810347
  H         7.1214893587       12.4132559604       20.3365555560
  H         5.6267593939       11.7701409973       19.8234012313
  C         6.4034559634       13.2197501225       18.4949929555
  H         2.9327298179        6.5153040829       16.0974931794
  C         3.5313632999        8.0191602548       14.7743099803
  H         3.3774308659        8.8807495927       29.4149392066
  H         2.2110691889        8.7752746972       30.6034287458
  C         3.7863469128       10.2688921447       31.0530683013
  H        -3.9043660900        8.8687149935       26.4371589187
  H        -4.3762883368        8.6600518816       28.2136839625
  C        -5.4432881774       10.2747997786       27.1743173796
  N        -1.2697286815       16.4394420882       30.5920681426
  C        -1.7085748149       16.3095656820       32.9068158651
  C        -1.7562548729       14.1321400701       34.1043192596
  H        -1.4340000468       12.3565588456       32.8616209594
  H         5.5123761652       13.4662091988       18.0188223957
  H         7.0708307237       14.0746136567       18.3136602161
  H         6.7920745978       12.3634162466       17.9776800932
  S         3.9300855609        9.5431608472       14.2434446850
  C         3.5413128452        6.9578300185       13.7868258005
  H         3.8427185579       11.3110882985       30.7760515735
  H         3.6247907596       10.1403093027       32.1534179099
  C         5.2544733629        9.9429451163       30.8308088818
  H        -5.1858968865       11.1939968486       26.6015867422
  H        -5.9052486546       10.4854749816       28.1601260519
  C        -6.5147078271        9.5814183565       26.3226705159
  S        -1.3803685325       17.9948806813       31.1567991925
  N        -1.9112781170       17.6458963983       32.6770276563
  C        -1.9898460745       15.6225200295       34.0923224092
  H        -1.8256895332       13.4557635642       34.9395908249
  C         3.9797791055        8.8446213369       12.5987284022
  N         3.9053931611        7.4987730907       12.6106691321
  O         3.3967463487        5.7474913276       14.0207471900
  H         5.8619102506       10.5233666013       31.5358089693
  H         5.4687336717       10.1915738297       29.8404933062
  C         5.4224009236        8.4620182111       31.2019917378
  H        -6.1565557691        8.9408026945       25.5078890809
  H        -7.1063537275        8.9311582682       27.0139613892
  C        -7.5042512938       10.5752379387       25.6382295102
  C        -2.4458901576       16.3299494069       35.2234277613
  S         4.4527675588        9.5650375326       11.1097927334
  C         3.8315587295        6.6737874876       11.4481509864
  H         5.6724572926        8.3310183991       32.2396552173
  H         4.4705219763        7.8583299762       31.1380741504
  C         6.4093888867        7.7699970322       30.2496649719
  H        -6.9932341697       11.2874038256       24.9242251738
  H        -7.9526074869       11.2473057695       26.3965578310
  C        -8.7848627337        9.9901404084       24.9718298161
  H        -2.4579483230       17.3723950331       35.1422098407
  C        -2.8130230599       15.9478634261       36.4963200788
  H         4.4917717639        6.9900771330       10.7510664947
  H         4.0536382745        5.6271574598       11.6536479866
  C         2.4118443701        6.6808801965       10.8693668582
  H         7.0499916015        7.0692532489       30.7933567297
  H         7.0531954445        8.4698066877       29.7962318037
  C         5.8082082317        6.9722186616       29.0958281238
  H        -8.9360342782       10.7750712424       24.2059754081
  H        -8.4950157673        9.0741887326       24.4476141986
  C        -9.9821091509        9.6861492842       25.8881948099
  S        -2.9755559332       14.3368679260       37.0134295812
  C        -3.0922320454       17.0020834384       37.4489485161
  H         2.0380741558        5.6605924068       10.5870827929
  H         1.5830209228        7.0466125610       11.5136158317
  H         2.4866062368        7.2598830522        9.9417270730
  H         6.5695386938        6.4229631948       28.5960327575
  H         5.2410552725        7.5470588856       28.3827989130
  H         5.1543168597        6.1839953100       29.4593581344
  H       -10.4286881589       10.5989101379       26.3126356401
  H        -9.6947620060        9.0089965466       26.6961127094
  H       -10.8063310189        9.2073729842       25.3573618779
  C        -3.4758373000       15.1150311273       38.6195402973
  N        -3.4399241399       16.4816723101       38.6447837689
  O        -2.8207891548       18.1778260619       37.3090952414
  S        -4.0134260180       14.2760109286       40.1050150757
  C        -3.8228028040       17.3369465963       39.7772153054
  H        -4.5350674382       18.0315967960       39.3186480246
  H        -4.3609183122       16.8341938589       40.5866608522
  C        -2.6522969834       17.9478014571       40.4853228271
  H        -2.0347732657       18.2434770906       39.6936926265
  H        -2.7621971294       18.8948179546       40.9370019414
  H        -2.0791912224       17.1812647578       41.0790229063
  H         7.8509112838       11.5390644844        3.2262637499
  C         8.3008661836       10.5670156037        3.4522713378
  H         7.4704775658        9.8741509014        3.6021630318
  C         9.0219253714       10.5420139635        4.8111132700
  C         9.0652763314        9.9951048708        2.2544326945
  C         8.0344810384       10.9160870893        5.9041739421
  H         9.5026704565        9.5517706083        4.9297983416
  H         9.8141108267       11.2853572857        4.9315524192
  H         9.6713640368       10.7474997772        1.8130886859
  H         8.4208987454        9.7027885921        1.4161998355
  H         9.7095164142        9.1023138758        2.4691739990
  C         6.9425509960        9.8194562048        6.2219216610
  H         8.6114360248       11.3023018325        6.7435807539
  H         7.5170152400       11.8571279767        5.7520975390
  C         6.3567917476        9.8012855120        7.6174529971
  H         7.4833054063        8.9170500341        6.1334298937
  H         6.0718458082        9.8068470010        5.5459332506
  C         5.1154240872       10.7448844241        7.7254295594
  H         7.0274708333       10.2099221319        8.3482161199
  H         6.0562578225        8.7565479877        7.8743821721
  C         3.9169710966        9.9175199978        7.1854858191
  H         5.0085260079       11.0743755575        8.7871259449
  H         5.3896423790       11.6762385507        7.2058079754
  C         2.7046613241       10.8013771714        6.9226952259
  H         3.6273900796        9.1276237920        7.9397350609
  H         4.0446177825        9.4294830378        6.2087620487
  C         3.0540615055       12.1303671721        6.3582618551
  C         2.3443061418       11.4977039204        8.1459020055
  C         1.5003505540       10.0854492531        6.2330775235
  C         2.7679376773       13.2685490780        7.0607929709
  C         3.5210305108       12.5591560494        5.1296988875
  C         2.2988641188       12.8435733538        8.2649779034
  C         1.9241103857       10.8795844014        9.3065531401
  H         1.8576956795        9.7088065146        5.2418558936
  H         1.2194352031        9.3211144913        6.9573503837
  C         0.3514804758       11.0667580220        6.0944463115
  S         3.1901535490       14.7461182392        6.4265584828
  C         3.6790267614       13.9533357658        5.0262744926
  H         3.7280229002       11.7719063950        4.4064466134
  C         1.9031899579       13.4496303472        9.4439048594
  H         1.9754494217        9.8210457610        9.3291168562
  C         1.4736615623       11.4560328505       10.4330788620
  H         0.6220885178       11.9879114666        5.7128065853
  H        -0.0455481001       11.1429242156        7.0985287471
  C        -0.8117395042       10.6339798617        5.2269569449
  C         4.0043780435       14.7068104566        3.7964887798
  C         1.3731292996       12.8180886065       10.5910805884
  H         1.9692196357       14.5092415891        9.4943883217
  C         0.9491006209       10.9684940716       11.6270131455
  H        -1.7165216578       11.0594055082        5.5789504681
  H        -0.7601302591        9.5702432538        5.3865832773
  C        -0.6272702922       10.8448641669        3.6201189216
  C         4.1380036285       16.1124151628        3.5968955789
  C         4.4723153006       13.9228235981        2.6408817410
  C         0.7515524039       13.4221377766       11.7650172556
  C         0.4637558161       12.0431951216       12.3625673607
  S         0.8021419678        9.4229969911       12.3270611217
  H         0.0032407808       11.7076895004        3.3102505403
  H        -1.6828447121       10.9983270349        3.2307892548
  C        -0.1731209837        9.5367242955        2.8878341021
  N         3.6918763660       17.0604667111        4.5425720690
  C         4.5227443500       16.6355406767        2.3688961265
  C         4.9063178282       14.4563536358        1.4567001782
  H         4.5799943916       12.8712052403        2.7342632913
  C        -0.5689548757       14.0882804951       11.3641569578
  C         1.7789359904       14.3391455219       12.6228425488
  C        -0.0038355113       11.5363855438       13.6162597946
  C         0.3175314342       10.2413437561       13.8519999782
  H         0.6746053272        9.0082272843        3.3617037608
  H        -1.0122763123        8.8796032311        2.7543914872
  C         0.2877638061        9.8387993801        1.4562245909
  S         3.7379251894       18.5221389208        3.8394040932
  N         4.4892113392       18.0654030390        2.4530354404
  C         4.8857504070       15.9432745124        1.1894908489
  H         5.2685530548       13.7412745328        0.7194915268
  H        -0.3934964035       14.8718928657       10.6017145178
  H        -0.8459623768       14.6494876082       12.2166123205
  C        -1.6563766212       13.1863008461       10.8734310562
  H         2.0764053676       15.3404916665       12.1228512669
  H         1.1974127966       14.6977415506       13.4961968710
  C         3.0263019958       13.5709680843       13.1035270160
  H        -0.2685155255       12.2479161831       14.4066739059
  C         0.0720644924        9.5510457186       15.1895081951
  H         1.0099469755        9.0230674117        1.2279957139
  H         0.9388916211       10.6723626734        1.5309117718
  C        -0.7940954615       10.1478917628        0.4197164650
  C         5.2144683611       16.5918435128       -0.0133802719
  H        -1.3853084568       12.5916531256        9.9801758411
  H        -1.9110408691       12.4525722364       11.6616912893
  C        -2.9293299389       14.0245080894       10.6124337247
  H         3.5895516624       12.9321525227       12.4448754129
  H         2.6178147869       12.9775208215       13.9388895621
  C         4.2210997320       14.3769802859       13.6151265158
  C        -0.0105699170        8.1984607893       15.4313369353
  C        -0.1223070091       10.3808097627       16.4133843893
  H        -1.5507685869        9.4220613862        0.5811498408
  H        -1.2947075735       11.1153278838        0.4969274529
  C        -0.2163716239       10.2296188220       -0.9983387766
  H         5.2141308234       17.6648360713        0.0328681312
  C         5.5030036993       16.1219371068       -1.2770062936
  H        -3.1497540154       13.9319563169        9.5362367916
  H        -2.7299172945       15.0898383546       10.6772711904
  C        -4.0557972991       13.5580794537       11.4476058579
  H         4.5894577591       15.0103586990       12.8357588939
  H         3.9441933924       15.1820293733       14.2892244383
  C         5.3516097024       13.5662249756       14.2638209356
  N         0.1543812569        7.2319286929       14.4666602636
  C        -0.3107917462        7.6158797073       16.6244032097
  C        -0.4093650295        9.8206028252       17.6790320669
  H        -0.1726628039       11.4289765197       16.3613409139
  H         0.8260078164       10.0109633961       -0.8728378115
  H        -0.4143636389       11.1245719166       -1.6061863764
  H        -0.5852456613        9.4138992138       -1.6409840021
  S         5.7055759707       14.4767473920       -1.7937871927
  C         5.6658173189       17.1489548617       -2.3358306663
  H        -4.0399461849       12.4436890100       11.6211103671
  H        -4.0437616126       14.0793070498       12.4138375242
  C        -5.4626654714       13.7818611592       10.9720667739
  H         5.7562469360       12.8843339069       13.5135063798
  H         4.9680320991       13.0105288883       15.0585201433
  C         6.4734788614       14.6175251265       14.7401633317
  S        -0.0850093908        5.7877722747       15.1159556005
  N        -0.5456567933        6.2495461317       16.5713105304
  C        -0.5438697974        8.3772568197       17.7957336191
  H        -0.5191480677       10.5405617477       18.4810497158
  C         6.0078281247       15.1469061550       -3.4225628254
  N         5.9744111925       16.4939540321       -3.5055369849
  O         5.5041545656       18.3552425781       -2.1832197064
  H        -6.1142949277       13.3511206588       11.7771730286
  H        -5.6024866350       14.8682831321       10.9268738939
  C        -5.7422874660       13.1274385824        9.6212532322
  H         6.0598730651       15.3771070844       15.4698465089
  H         7.1144288902       13.9181946131       15.2742040345
  C         7.2753043919       15.1893597267       13.6112239036
  C        -0.9771158473        7.6306169441       18.9763174685
  S         6.3675954323       14.1984789318       -4.7955477207
  C         6.0962597891       17.2201033210       -4.7590311163
  H        -5.0421299068       13.1740289568        8.8817140743
  H        -5.9140388905       12.0886174788        9.6591627906
  C        -7.0461881748       13.7263068389        9.0344675262
  H         6.7522078326       15.7884239012       12.8580875481
  H         7.8056038792       14.4087881677       13.0067794370
  C         8.4881384008       15.9896540734       14.1972446095
  H        -0.6631978035        6.5775111134       18.9517709357
  C        -1.6499785752        7.9768654208       20.1340509324
  H         6.9084762170       16.8730177128       -5.4276851137
  H         6.5469187454       18.1661992443       -4.4512936132
  C         4.7284979980       17.3422668801       -5.3689876158
  H        -7.3803913724       13.0904565557        8.1613148907
  H        -7.0065533938       14.7139112207        8.6060647411
  C        -8.1028331230       13.6670892750       10.0065828959
  H         8.7505930443       15.7487044083       15.2464080920
  H         9.3776227879       15.7418808194       13.6344776899
  C         8.3555485900       17.4828806940       14.3241209294
  S        -2.2605916145        9.5045158653       20.4355808160
  C        -1.9636412220        6.9119440427       21.2046314778
  H         3.9361664986       17.3924770435       -4.6024856747
  H         4.5115737290       16.4895612713       -5.9575022288
  H         4.5439940720       18.2261863220       -5.9382185812
  H        -8.1392823262       14.5393841182       10.6515189451
  H        -9.0004901043       13.5942172772        9.4550105082
  H        -7.9017639469       12.7680763588       10.5889991461
  H         7.3338549305       17.6512073556       14.6537867908
  H         8.9830415402       17.8333884438       15.1610332443
  H         8.6585485579       17.9647896724       13.4032810393
  C        -2.5789874865        8.9051175531       22.0434498577
  N        -2.5520974814        7.5482475688       22.2004782012
  O        -1.5444613356        5.7755780161       21.1918342671
  S        -3.1035274108        9.8797096791       23.3899082234
  C        -2.6067946305        6.8202065686       23.4622229878
  H        -2.8251960393        5.7803534906       23.2793974214
  H        -3.3997624694        7.3179025182       24.0136059697
  C        -1.3032597787        6.8129451242       24.3195711716
  H        -0.6072481095        7.5096178028       23.8382219276
  H        -0.7709227833        5.8970003203       24.4269245954
  H        -1.4444940279        7.1648184603       25.3146895223
