352
i =
  H        -1.9765920231       14.8620252382       14.7869597019
  C        -2.5029983504       14.3588130683       15.5594425946
  H        -3.3198444417       15.1153946241       15.6248355997
  C        -1.5960290752       14.0872708025       16.7991227309
  C        -2.9474245533       13.0505984939       14.7989390606
  C        -2.3179163768       14.1928357996       18.1099065925
  H        -1.2015017685       13.0798482761       16.8275957664
  H        -0.6867069488       14.6659982413       16.7285777968
  H        -2.1312521043       12.3836773148       14.6022471342
  H        -3.7162294563       12.5871017420       15.4684559062
  H        -3.3646693601       13.2674622418       13.8331186005
  C        -1.3296522454       13.8928483933       19.2423311893
  H        -3.1287768941       13.4735343934       18.0826513842
  H        -2.6932148966       15.2239886448       18.0561379421
  C        -2.0122334685       13.6504371773       20.7023321513
  H        -0.6492441314       13.0520825471       18.9418041518
  H        -0.6679773258       14.7514205241       19.3623413309
  C        -1.1935128290       13.0477572441       21.9156392789
  H        -2.8477841769       13.0123447991       20.5921697890
  H        -2.4486719802       14.6360995158       20.8181437029
  C         0.0351452257       13.8687027164       22.2503673604
  H        -1.8817365010       13.0252488724       22.7695763503
  H        -0.9271182505       12.0507900498       21.7828499446
  C         1.1411863825       13.0960672480       23.0984281586
  H         0.4381106065       14.2816507127       21.3297648900
  H        -0.2131627528       14.7338267941       22.8537863987
  C         1.4312251392       11.7784282509       22.3544554559
  C         0.5864099119       12.3161210257       24.2424115283
  C         2.4709658152       13.8727493082       23.3677478976
  C         1.1467938736       10.6352962228       23.0761960762
  C         1.9782195062       11.4503978845       21.0612887901
  C         0.5629070612       10.9577216461       24.3041929134
  C         0.1283881857       12.8847990289       25.4614490242
  H         2.8705929118       14.1141052926       22.4218175285
  H         2.3856901508       14.7911203861       23.8554494264
  C         3.5386819353       12.9600511783       23.9498352834
  S         1.6400350857        9.1713112957       22.3130451136
  C         2.0913566558       10.0949141113       20.8941284156
  H         2.3216423672       12.2504885828       20.4744148427
  C         0.2455012750       10.2788083485       25.4467460245
  H         0.0297070146       13.9776721657       25.4164627332
  C        -0.2191080743       12.2160000113       26.5992292431
  H         3.7066301172       12.1458679249       23.2585277816
  H         3.1843811064       12.4893699042       24.8439684365
  C         4.7938399753       13.7408520088       24.3460717142
  C         2.6135175508        9.4355393402       19.5980835221
  C        -0.2169158331       10.8354386890       26.6808246445
  H         0.2122917964        9.2176357525       25.4861895359
  C        -0.6245221895       12.5239772024       27.8684570396
  H         5.3470335116       13.0727807655       25.0107932774
  H         4.4345098169       14.6263080011       24.8902845600
  C         5.7246938195       14.2107262532       23.2401282192
  C         2.6548885042        8.0150477782       19.3250755951
  C         3.2638744594       10.2083648889       18.5322082005
  C        -0.5653790242       10.1392755036       27.9448987334
  C        -0.8749303503       11.4534781988       28.6933973104
  S        -0.8522016589       14.0372968368       28.6437389161
  H         6.5019082244       14.8571231304       23.6741977684
  H         5.2185350889       14.9609798625       22.6645746970
  C         6.3726597899       13.0425534888       22.5042089341
  N         2.2399119795        6.9884752247       20.2447282322
  C         3.1351246254        7.4540277465       18.1289789745
  C         3.5929747497        9.6507028726       17.3295795954
  H         3.5155003624       11.2186891444       18.7289657574
  C         0.6199182687        9.3655581731       28.5652590882
  C        -1.8820899148        9.3476324839       27.7121670177
  C        -1.2380893697       11.8320935376       29.9304224539
  C        -1.2480522351       13.1992017503       30.0790257681
  H         7.3754987169       13.0093318917       22.8278961813
  H         5.8896079541       12.0959497729       22.8164791134
  C         6.2858558758       13.2321200289       20.9493547938
  S         2.3547373904        5.5024124439       19.6107116393
  N         3.0564392836        5.9820791289       18.1950553325
  C         3.5159188523        8.1991171789       16.9902190359
  H         3.9287095453       10.4162901986       16.5973436616
  H         1.0447770008        8.6696872623       27.7830879725
  H         0.2189557062        8.6440295532       29.3190758390
  C         1.6673948804       10.1497414624       29.4473412638
  H        -1.7086930487        8.5547360917       26.9756318920
  H        -2.2218500873        8.7742335251       28.6147525374
  C        -3.1201506458       10.1509674540       27.2031330711
  H        -1.3494140970       11.0950124930       30.6954396110
  C        -1.5014259483       13.9811404260       31.3642919392
  H         5.9369848500       14.2672811167       20.7142441919
  H         5.6075664501       12.5076879775       20.5331858988
  C         7.7507358197       13.2483314365       20.3900722924
  C         3.7862674241        7.5720275915       15.7284505571
  H         1.9142024025       11.0997635078       28.8661832676
  H         1.2570415780       10.4049742022       30.4509752599
  C         2.8730832660        9.2990127906       29.6042528065
  H        -2.8184686490       10.8831849545       26.4064779541
  H        -3.5059036439       10.8913984083       27.8733818187
  C        -4.1712447591        9.2215740523       26.6992976438
  C        -1.4645763612       15.3569142606       31.5697404213
  C        -1.7073248594       13.2117294110       32.5984186408
  H         8.2088038885       14.2015334990       20.7971935139
  H         8.3617118918       12.3540605167       20.6027791630
  C         7.5315017972       13.5815862281       18.8898920244
  H         3.4947647207        6.5318025262       15.6589181100
  C         4.0611915004        8.0786113887       14.4637971802
  H         3.1863968832        9.0542758310       28.5840878752
  H         2.7044501826        8.3526429380       30.1085377610
  C         4.0893910938       10.0243962885       30.1468919145
  H        -3.6472138057        8.5874872797       26.0330409893
  H        -4.5393882208        8.5663113180       27.4759834233
  C        -5.1761901558       10.0512598083       25.9782273496
  N        -1.2323470682       16.3313478839       30.6095411674
  C        -1.7516160217       15.9428661785       32.8069605327
  C        -1.9587778543       13.7569808664       33.8792808805
  H        -1.6399741397       12.1341254748       32.5124553890
  H         8.4796989858       14.0445649230       18.5080527545
  H         7.2389481967       12.7960189992       18.2822738990
  H         6.8438302026       14.4329776048       18.7830741528
  S         4.4573679405        9.6746939013       14.0000547131
  C         4.0409689025        7.0063347895       13.3878155098
  H         4.2521110312       10.9228058613       29.4579268021
  H         3.7646127209       10.4617667413       31.1347002973
  C         5.3925470932        9.1573288697       30.2112559735
  H        -4.9080200920       10.3520223095       24.9486649460
  H        -5.2793476833       11.0181208632       26.4743095426
  C        -6.5749905308        9.4460628801       25.9334387950
  S        -1.4125044462       17.8061558521       31.2840064353
  N        -1.7840789822       17.3292109210       32.7550749904
  C        -2.0376426884       15.2176095200       34.0212016401
  H        -2.0503952750       13.0849913848       34.6868726882
  C         4.5644621768        8.9285155723       12.3895220530
  N         4.3067449991        7.6141571942       12.2445136790
  O         3.7982070253        5.8553261754       13.4981651035
  H         6.2224150931        9.7979864793       30.4341049044
  H         5.6894946052        8.7400667895       29.2416701340
  C         5.4174457434        8.0338866406       31.3285996536
  H        -6.4383099103        8.6228167017       25.2509880658
  H        -6.8411258580        8.9546880302       26.8807959714
  C        -7.6076997606       10.3643419961       25.4501095162
  C        -2.3516719265       15.9349159259       35.1927753894
  S         5.0046614429        9.7793973663       11.0055692157
  C         4.2645614360        6.8431084467       10.9955111842
  H         5.8629265825        8.2647699950       32.3152945953
  H         4.3916170094        7.7619002892       31.5719962215
  C         6.0685729475        6.7064429752       30.9016884113
  H        -7.1814312636       10.8034990044       24.5391135023
  H        -7.6648403259       11.2148240304       26.1318320980
  C        -8.9556425874        9.6768430214       25.1243145472
  H        -2.1577020055       16.9869242835       35.1139698299
  C        -2.9719153365       15.6201150169       36.3695746916
  H         4.8370545079        7.2911571621       10.1888336345
  H         4.9066449927        5.9559739314       11.1621258529
  C         2.8514810659        6.4804656194       10.4535942984
  H         6.7928640322        6.9065337080       30.0924734654
  H         5.2729595753        6.2006483379       30.3488528274
  C         6.7145939277        5.9343272787       31.9274006640
  H        -9.4850030781       10.3211199453       24.4901256688
  H        -8.8074608938        8.7026850269       24.5366199584
  C        -9.8126404812        9.5469231529       26.4437053303
  S        -3.4298957085       14.0699041755       36.9975593080
  C        -3.0482761149       16.6499964823       37.4267978634
  H         2.3374178629        7.3894032570       10.0538335015
  H         2.8744540624        5.9800626425        9.5295618519
  H         2.2238510294        5.9420728049       11.1880136291
  H         6.3172027687        4.9704088653       31.9461936892
  H         6.5557168571        6.3148466078       32.9310842981
  H         7.7656821284        5.8207328790       31.6440126595
  H       -10.8718702219        9.0965019763       26.3812394612
  H       -10.0518155358       10.4535713989       26.9537963255
  H        -9.3788626149        8.8737609332       27.1110206157
  C        -3.7455263318       14.8401920454       38.5298914399
  N        -3.6418088006       16.1487865268       38.5276378566
  O        -2.6824503292       17.8043765483       37.3249025609
  S        -4.5166396307       14.0527016311       39.9142040152
  C        -3.8900927382       16.9843433085       39.6346605755
  H        -4.0361730221       18.0158345825       39.3206388929
  H        -4.7265845207       16.7113089788       40.2487488163
  C        -2.6169462610       16.8907599610       40.4443254354
  H        -2.4953101233       17.7669030970       41.0027982717
  H        -2.5735253501       16.0263538681       41.0594909215
  H        -1.7531677331       16.8334465895       39.7525936066
  H         7.6796894015       11.4122216843        2.9268753092
  C         7.9188597805       10.3799912967        3.1094251900
  H         7.0168306021        9.8241291121        3.1620034966
  C         8.8524512088       10.2087613409        4.3026173692
  C         8.6507996936       10.0533204227        1.8047041902
  C         8.2130642887       10.4622217881        5.6300096912
  H         9.3075133086        9.2476130327        4.2514517622
  H         9.6413236763       10.8818328830        4.1854867944
  H         7.9062226481       10.0499833346        0.9742133958
  H         9.1083009132        9.0901980931        1.8539190751
  H         9.4192894883       10.8784611948        1.6741122648
  C         7.2762147338        9.2976205382        6.0158418549
  H         8.9225578707       10.6703026009        6.4571658213
  H         7.6244153685       11.3279346869        5.5301453784
  C         6.6103916032        9.5694161069        7.3890504216
  H         7.7267431444        8.2968630599        6.0493615324
  H         6.4624897821        9.1544665435        5.2442397187
  C         5.3154988549       10.3971195185        7.3355157549
  H         7.2705072096       10.0792027492        8.0912692370
  H         6.4785654206        8.6052909395        7.8783556639
  C         4.1330472886        9.6458161903        6.8924236814
  H         5.1115690851       10.6726654974        8.3639231739
  H         5.4615895925       11.3423070839        6.8923636986
  C         2.8709678522       10.4618401828        6.6989457456
  H         3.9138437653        8.8438926287        7.5783550630
  H         4.3134763220        9.2400371361        5.8659107520
  C         3.2153132904       11.8228953096        5.9961668586
  C         2.4151959479       11.2179798371        7.9214834710
  C         1.8947894930        9.7466303520        5.8040660063
  C         3.1247619344       12.9277389250        6.8344775238
  C         3.7245252411       12.2059256095        4.7454296043
  C         2.5661433759       12.5491946898        8.0137121823
  C         2.0102252359       10.6158412912        9.0988236147
  H         2.2653493740        9.2231721215        4.9836205424
  H         1.5290051368        8.9442215170        6.4136285599
  C         0.6970590212       10.5472496899        5.3727825461
  S         3.7855883417       14.3518923164        6.1529240091
  C         3.9688925788       13.5361572288        4.6265597061
  H         3.9754576138       11.4981597667        3.9910834976
  C         2.2706216502       13.1571582416        9.1776035140
  H         1.9908806967        9.5400076810        9.1834231134
  C         1.6439321093       11.2192297443       10.2066267423
  H         1.0988327585       11.1611777560        4.7122392020
  H         0.2477061501       11.0930372667        6.1876449252
  C        -0.3912823437        9.7218796525        4.7055963451
  C         4.5097067253       14.3465662361        3.4745360472
  C         1.7514799604       12.5722898532       10.3477357084
  H         2.5715839931       14.1797931768        9.1853005690
  C         1.2746837638       10.8108400128       11.4268483221
  H        -1.2642824522       10.3090395114        4.8585394826
  H        -0.6576737976        8.9234457736        5.2948673444
  C        -0.0516056071        9.4125213213        3.2669734466
  C         4.5268919989       15.7535689166        3.3054506958
  C         5.0835858659       13.5189882613        2.3494831037
  C         1.4417972974       13.2233145744       11.6150994186
  C         1.1685376852       11.8875562674       12.2826646191
  S         1.0868536032        9.2478773025       12.1541310957
  H         0.1959380655        8.3810948434        3.1313832992
  H         0.7749795742       10.0078538221        2.9384515505
  C        -1.1628865966        9.6159173894        2.3285510120
  N         3.9871543175       16.6820124562        4.1612177817
  C         4.8642220186       16.3359984467        2.0729651947
  C         5.3520121472       14.1305171995        1.1062631908
  H         5.2749114522       12.4586486489        2.4555441354
  C         0.2398359793       14.1904462836       11.4563584617
  C         2.7909493811       13.8605586253       12.0498821690
  C         0.9287769731       11.4488990362       13.6040824063
  C         0.8365042861       10.1009375984       13.7379617602
  H        -2.0539136187        9.1847964115        2.7262816841
  H        -1.4707401786       10.6752531080        2.3364377603
  C        -0.9664093004        9.3139354302        0.8339268047
  S         4.1460606738       18.1491478177        3.4908362123
  N         4.7688359733       17.7054097686        2.0802655010
  C         5.1768849579       15.5790162428        0.9051213271
  H         5.6540265453       13.4327819210        0.3386952567
  H         0.5835698653       14.8759578689       10.6718313110
  H         0.0393001856       14.7493505525       12.3456661216
  C        -1.0010671895       13.4977991909       10.8252732701
  H         3.5172279509       13.1640809936       11.6368103960
  H         2.9273543295       14.8030507944       11.5306836580
  C         3.0263271633       14.0763315934       13.4926013431
  H         0.6408681797       12.1720369442       14.3639229477
  C         0.5284069165        9.3290128847       14.9510703354
  H        -1.9174851362        9.1296976712        0.3926386776
  H        -0.4531132731        8.3904709445        0.8415884883
  C        -0.2293112578       10.3980605145        0.0149540862
  C         5.2235352517       16.2637469916       -0.3820088237
  H        -0.7760658707       13.0386676337        9.9013893562
  H        -1.3638001784       12.7382481319       11.5304283529
  C        -2.1312192070       14.4200808323       10.5269255032
  H         2.8961653656       13.1487611519       14.0079746627
  H         2.3629150136       14.7080059468       14.0411269382
  C         4.4603687688       14.4529562135       13.7027297468
  C         0.6201640369        7.9661840415       15.2121638834
  C         0.1527284135       10.0593807538       16.1524216037
  H         0.0841939153       11.0975967567        0.8241594831
  H         0.7099972634       10.0386558947       -0.4161149367
  C        -1.1194216653       11.1422261977       -1.0345991259
  H         5.2369093850       17.3497525981       -0.2320375362
  C         5.4973819444       15.8667035348       -1.6542679192
  H        -1.9087783669       15.1951894155        9.7301221291
  H        -2.3951193266       14.9918397694       11.4297869080
  C        -3.3450134587       13.5422922294       10.1858019902
  H         4.8009866199       14.9357590328       12.8273357593
  H         4.4314645152       15.2047720970       14.4725270964
  C         5.3596367459       13.3363798769       14.2415758565
  N         1.0412536645        7.0495687069       14.2608878887
  C         0.1507706418        7.3131460251       16.3793003228
  C        -0.2704198520        9.4886914089       17.3322917189
  H         0.2370516357       11.1091345040       16.1357277373
  H        -2.1717368767       11.2714882778       -0.7761292187
  H        -1.1856881861       10.3960389332       -1.7713421789
  H        -0.8253118737       12.0593759919       -1.5305192150
  S         5.7753822936       14.2261393355       -2.2526500101
  C         5.5837179530       16.8688211002       -2.7231607180
  H        -3.2004271889       12.8365134374        9.3512945800
  H        -3.6971957819       12.9620277715       11.0730145926
  C        -4.4480680422       14.3551379034        9.5481672971
  H         5.3106886906       12.3988364427       13.7589980981
  H         5.2421208407       13.1433538630       15.3260708157
  C         6.8506013663       13.8758586137       14.1425650875
  S         0.9217135203        5.5618217021       14.8270168319
  N         0.3019175322        5.9301859378       16.3419770833
  C        -0.3186889636        8.0366182730       17.4771039299
  H        -0.5317230794       10.1978760631       18.1277758527
  C         6.0193395167       14.9327237661       -3.8315706308
  N         6.0495975443       16.3411116401       -3.8474435129
  O         5.3803624215       18.0426185271       -2.5046208757
  H        -4.8499170787       14.9450776547       10.3723448002
  H        -4.0690881034       15.0367068143        8.8368464252
  C        -5.5012307441       13.4207699771        8.9435395179
  H         7.5551363429       13.0336943487       13.9959070910
  H         6.8555057134       14.5120731868       13.2895783313
  C         7.3326746105       14.6687764476       15.3374603917
  C        -0.6152064841        7.2939339848       18.6494277515
  S         6.3991605739       14.0888890735       -5.3755809356
  C         6.0708292103       17.0906082865       -5.1403507193
  H        -5.2909042023       13.2666113482        7.9050512881
  H        -5.6398206825       12.3899637624        9.3606104184
  C        -6.8196851844       14.1057265718        9.0063324936
  H         8.0773334258       14.1310806010       15.9723978616
  H         6.4902463878       14.9113619075       16.0248105977
  C         8.0323539220       15.9677309990       14.9200759888
  H        -0.4986670302        6.2142963434       18.5080985082
  C        -1.0937798679        7.6616167891       19.8654103616
  H         6.7897819893       16.6278164835       -5.8466533011
  H         6.3245577304       18.1279318197       -4.9895484109
  C         4.7226187540       17.0225478365       -5.8646999961
  H        -7.2586211693       13.7279644050        8.1199992487
  H        -6.6570243288       15.1814057436        8.8474153607
  C        -7.5882836549       13.8271707350       10.2940477618
  H         8.7981351483       16.0601868823       15.6321671336
  H         8.4999901468       15.8349881525       13.9499324304
  C         7.1583332106       17.2173682505       14.9949705228
  S        -1.5735518198        9.2741967818       20.3570744599
  C        -1.2319247930        6.6432060586       20.9388118363
  H         4.3509257251       18.0378968024       -6.0800699031
  H         3.9516979822       16.5077055782       -5.3399083860
  H         4.7853260562       16.5292916459       -6.7917509694
  H        -8.5501769378       14.2725652682       10.3014742851
  H        -7.6989031431       12.7592291994       10.3815258030
  H        -7.0891142589       14.2154758215       11.1778409169
  H         7.4452664178       17.7035785808       15.9517398111
  H         7.5249541059       17.8697810160       14.2458101591
  H         6.0992635440       17.0268170074       14.8309463248
  C        -1.9118601711        8.4581979852       21.9607017435
  N        -1.6442448659        7.1498730443       22.0250781237
  O        -1.0755170057        5.4327276194       20.7435229884
  S        -2.5031046510        9.2726215080       23.4012837562
  C        -1.8694417984        6.4689740774       23.2303774271
  H        -2.0746988217        5.4334703965       22.9765502379
  H        -2.8339111881        6.8026260054       23.6501805525
  C        -0.6452938178        6.5085628471       24.1226645275
  H        -0.8723161508        6.0049605147       25.0282435447
  H        -0.3971327822        7.5187644038       24.3518018273
  H         0.1378366449        5.9609630074       23.6725116829
