352
i =
  H        -2.8251488148       15.3628979296       16.2422451998
  C        -2.9469142029       14.3640069709       16.5744111319
  H        -4.0422195305       14.4716773249       16.6795997148
  C        -2.2998585747       14.2828933660       17.9617757459
  C        -2.4331850913       13.3375041742       15.5385570838
  C        -3.0645800897       13.2469223560       18.8152232455
  H        -1.1757222518       14.0429820075       17.6775104811
  H        -2.3548829486       15.2975594642       18.4709129694
  H        -3.0850732157       12.4834357499       15.5092465693
  H        -2.3500601262       13.7725967834       14.5386805118
  H        -1.3800599016       13.1172504959       15.8825097651
  C        -2.0901310751       12.8546003607       19.9599499442
  H        -3.2864398693       12.3879979836       18.1896824562
  H        -3.9772317687       13.5307340031       19.1640428185
  C        -2.5878713880       13.1886057502       21.3701526895
  H        -1.9085561950       11.7343959955       19.9910663559
  H        -1.0875696208       13.2191992379       19.7037184410
  C        -1.6330986077       12.8556806471       22.4773188697
  H        -3.5315606783       12.5835899386       21.5004346531
  H        -2.8267486949       14.2882049527       21.3092859480
  C        -0.3091346402       13.6445434382       22.5467361083
  H        -2.2415212063       13.2383493448       23.3551707810
  H        -1.4543087673       11.7992691065       22.5744827625
  C         0.8817300012       12.9136056891       23.2520572961
  H         0.0053241556       13.9129106183       21.5597082799
  H        -0.4593237330       14.5361630952       23.1434205885
  C         1.2952758053       11.6076504587       22.6509096772
  C         0.4036646862       12.2683876723       24.5427414420
  C         1.9950633058       13.9272682157       23.2929086747
  C         1.0027473636       10.5035077604       23.4211638088
  C         1.8863830656       11.3293170603       21.3897707613
  C         0.4667373331       10.8643899071       24.6269361025
  C         0.0295806467       12.8249774473       25.7066144473
  H         2.1376759152       14.4578056976       22.3763298916
  H         1.7008961515       14.6958048421       23.9539128793
  C         3.4083392390       13.3992432973       23.6435649997
  S         1.4959375652        9.0397023358       22.6410939145
  C         1.9690060591        9.9277721664       21.2512020700
  H         2.1790443344       12.1428489866       20.7250846086
  C         0.1866585304       10.1926113062       25.8078631858
  H        -0.0803188225       13.9233446631       25.6980210217
  C        -0.2745927787       12.1894468161       26.8920352155
  H         3.7628430991       12.5903275073       23.0015357786
  H         3.2610642193       12.9010546617       24.6155083069
  C         4.4191470042       14.5259890222       24.0547979694
  C         2.4761308560        9.2726963857       20.0090862493
  C        -0.2435625763       10.8598180746       26.9949621557
  H         0.2374760627        9.1328592808       25.8904830303
  C        -0.5973976351       12.6534252825       28.1104304468
  H         5.2189754232       14.1498322753       24.7371055739
  H         3.8616954497       15.2954251348       24.5852667568
  C         5.1461343466       15.2267703362       22.8279516195
  C         2.6517663564        7.9139135778       19.7421341483
  C         2.9032017211       10.1326813809       18.9081977442
  C        -0.5214560060       10.2116552854       28.3438295795
  C        -0.6700656770       11.6164168857       29.0159624276
  S        -0.7293502301       14.1175458498       28.8299754472
  H         5.5528780280       16.2166618543       23.0885502174
  H         4.4148193668       15.4019953461       21.9903697876
  C         6.3754617884       14.4853582988       22.3525783326
  N         2.4883973277        6.9446568159       20.7482501755
  C         2.9989644392        7.4019584872       18.5422381810
  C         3.2341596741        9.5587504793       17.6878220361
  H         2.9516921815       11.2101197354       18.9160631258
  C         0.5920710532        9.3862109978       28.9341652011
  C        -1.9222071086        9.4985523806       28.3783043340
  C        -0.8229833743       12.1156997737       30.3585267443
  C        -1.0152616469       13.4326021162       30.4203982419
  H         7.1471495042       15.1699605082       22.1255088159
  H         6.7683897414       14.0032979852       23.2971244819
  C         6.2349935586       13.2888739198       21.3916124831
  S         2.5849941204        5.4957540878       20.1122620786
  N         2.9737980552        5.9995252972       18.6187413597
  C         3.2333491857        8.1698269920       17.3774100773
  H         3.2683206286       10.1717848477       16.8136346061
  H         0.7902762386        8.4290566381       28.4531937197
  H         0.2914584993        8.9860282866       29.8885316738
  C         1.9194929643       10.0458425583       29.0877657857
  H        -1.8848381049        8.4836957326       28.0536339039
  H        -2.1639830152        9.4837469434       29.3874672703
  C        -2.9426211151       10.3141207312       27.6250107976
  H        -0.6976340677       11.3875521921       31.2008538727
  C        -1.3449971103       14.1888529435       31.6237447850
  H         5.2232221566       12.8844556010       21.4156220088
  H         6.8367164742       12.4091373021       21.7732040216
  C         6.7217015237       13.5773862237       19.9391125920
  C         3.4223421893        7.4436364812       16.1851895887
  H         2.2345813939       10.4647265021       28.1724482443
  H         1.7603932548       10.8285605543       29.7853653861
  C         3.0578624512        9.1112027286       29.5478052863
  H        -2.6185674014       10.7535333802       26.7140275286
  H        -3.3081251873       11.1640525162       28.2085113972
  C        -4.2131028948        9.6225264951       27.4792581690
  C        -1.4662928256       15.6079963427       31.7215866379
  C        -1.5878524308       13.5128240071       32.8840844252
  H         6.2532815574       12.8893719969       19.2569190073
  H         6.3743871835       14.6245397810       19.7635906635
  C         8.2662530043       13.5350385228       19.8724695727
  H         3.2179848846        6.3836786133       16.3280397890
  C         3.6826090429        7.8244270611       14.8662569227
  H         3.2338553799        8.3616881322       28.6798943167
  H         2.5953866690        8.5056506436       30.2769167042
  C         4.3751368552        9.8750487136       29.8764883877
  H        -4.1575429161        8.7967647995       26.8398188235
  H        -4.4067523232        9.2413016329       28.4547399693
  C        -5.3659304967       10.5668853427       27.1344414443
  N        -1.1453068331       16.4532517320       30.6372945820
  C        -1.8302067583       16.3095448819       32.8760640656
  C        -2.0142867745       14.1913959028       33.9969621721
  H        -1.5697532683       12.4799798922       32.9256655767
  H         8.6539936155       14.5051758538       19.8305518026
  H         8.7328257174       12.8158828028       20.5668590228
  H         8.4510101373       13.1258082304       18.8779261359
  S         4.1401519772        9.4465247732       14.3063647737
  C         3.6299727050        6.7790327324       13.7779985372
  H         4.6110571854       10.6608332438       29.1227068944
  H         4.3280647902       10.4736097082       30.7888035748
  C         5.6232439779        8.9877803261       29.9053372320
  H        -5.1734436739       11.3440202221       26.4074701815
  H        -5.7487216555       10.9742758480       28.0522284290
  C        -6.4718694660        9.8191826568       26.5084557373
  S        -1.4753228117       17.9732696020       31.0943443246
  N        -1.7905921713       17.6701864373       32.6538774385
  C        -2.1215529125       15.6439351069       34.0402665001
  H        -2.1806428322       13.5104100601       34.8032181081
  C         4.3242359945        8.6630409977       12.7739070338
  N         3.9744380423        7.3620464030       12.6457369402
  O         3.5298173820        5.5397527676       13.9881336844
  H         6.5113954664        9.6401442747       29.7856847841
  H         5.5961075492        8.4457312976       28.9724395438
  C         5.8204632270        8.0840232014       31.1291951839
  H        -5.9671058921        9.1933976222       25.7665400658
  H        -7.0707407619        9.2180009569       27.1803790302
  C        -7.3181909228       10.7841761053       25.6605553047
  C        -2.5002911233       16.4601769289       35.1647156639
  S         4.7974871072        9.3122346481       11.1840119756
  C         4.0798488258        6.6535569636       11.3755137431
  H         6.5511869383        8.4843191320       31.8056739126
  H         4.9683369711        8.1522345135       31.8397662866
  C         6.1234388273        6.6362656019       30.6534714022
  H        -6.6130474431       11.0751982718       24.8067370062
  H        -7.6441552119       11.6161996211       26.3291036794
  C        -8.5371234711       10.0716012140       25.1507364149
  H        -2.2135714064       17.5012046810       35.0001617176
  C        -2.7980304721       16.0145411014       36.3999285174
  H         4.9614933042        6.9165091441       10.8582888493
  H         4.3258877283        5.6078053435       11.6703744464
  C         2.8711840533        6.5550419772       10.5367592511
  H         7.1389751913        6.6136175824       30.1814664068
  H         5.5113082797        6.3403117936       29.8266876889
  C         5.8831121648        5.6334908541       31.7836435874
  H        -8.9558461630       10.3963312062       24.1898102988
  H        -8.2193200615        8.9823614608       25.1590477804
  C        -9.7197376505        9.9670359752       26.1075501265
  S        -3.1568464929       14.4580435097       36.9122825501
  C        -2.8829604431       17.0584250318       37.4126473786
  H         3.1174316443        5.9981340216        9.6149062894
  H         2.1618284870        5.9589503148       11.0764945845
  H         2.4006172348        7.5177888826       10.3012910524
  H         5.8783721879        4.5673592287       31.5328075552
  H         4.9205449409        5.8966084879       32.2503922460
  H         6.6748219244        5.7918103582       32.5250436761
  H       -10.4975169104        9.3456987545       25.6718614016
  H       -10.1865706880       10.9236307474       26.4039133936
  H        -9.4003197346        9.4835222338       27.0264827795
  C        -3.4631814662       15.2012481934       38.4854684686
  N        -3.3395021908       16.5401216634       38.5449482636
  O        -2.8851619320       18.2500476112       37.1435021858
  S        -4.3122498211       14.3556398280       39.8103902910
  C        -3.6757143462       17.3431403010       39.7180492292
  H        -4.4537909897       18.0172671092       39.4240564609
  H        -4.0686235559       16.8048485354       40.5757627576
  C        -2.3797088980       17.8285194305       40.3105766469
  H        -1.5864598078       17.0596631310       40.1159806803
  H        -2.0844710155       18.7477581590       39.7663835995
  H        -2.4640832949       18.1746858332       41.3216725828
  H         7.5527965933       11.6660019991        3.4502339772
  C         8.2180460603       10.7863413730        3.5465801150
  H         7.6038161082        9.9570556899        3.6671502850
  C         9.0704091807       10.7348451138        4.8008626243
  C         9.0809259206       10.6645076558        2.2590607953
  C         8.2593314798       11.0419880957        6.0382234518
  H         9.5224903533        9.7649445558        4.9037165109
  H         9.9295105275       11.3878443121        4.8215845540
  H         8.6748993304       11.2623079513        1.4423600539
  H         9.1486411399        9.6228621247        1.8652925320
  H        10.1123917585       11.0392577441        2.4583610402
  C         7.4443394241        9.6768239430        6.4133894894
  H         8.9194014825       11.4442844335        6.8507978982
  H         7.3975151335       11.7211052706        5.8601945065
  C         6.7193751000        9.7725518950        7.7396761086
  H         8.1182601871        8.8528995627        6.3340432052
  H         6.7074061223        9.5193540374        5.6029240090
  C         5.4650602900       10.6348253615        7.7059523543
  H         7.4674310549       10.2637467270        8.2832777383
  H         6.4760208002        8.7782008154        8.1574592484
  C         4.2911223691        9.9839726235        6.9805877526
  H         5.3348801074       10.7494834389        8.7844298641
  H         5.7402773731       11.5977595656        7.2805995993
  C         2.9798979359       10.8227079390        6.9412782899
  H         4.0084999255        9.0463281719        7.4907013660
  H         4.5897165269        9.6103572705        6.0566542358
  C         3.3616214801       12.1585614331        6.3228460929
  C         2.5133350338       11.4841010187        8.1795332774
  C         1.7740377320       10.1755164906        6.3043696474
  C         3.0619916084       13.2387769780        7.1036334425
  C         3.8544102473       12.5154327998        5.0653653756
  C         2.6025046663       12.8030455880        8.3418629163
  C         2.0879119219       10.8312840134        9.3412151669
  H         2.1198229179        9.7564966194        5.4284064247
  H         1.2694249069        9.3596344303        6.8599488580
  C         0.5727989601       11.0842722172        6.0021364272
  S         3.5505972365       14.7576073409        6.4604292266
  C         3.9766635584       13.8664094178        4.9848538916
  H         3.9116886981       11.8144980304        4.2428484507
  C         2.3282224185       13.4045232597        9.5638382848
  H         2.0142129744        9.7816712110        9.1749931395
  C         1.6916113447       11.4148438104       10.5162853155
  H         0.7805491852       12.0587305000        5.6669832559
  H         0.0715156043       11.2485917370        6.9854673655
  C        -0.5085527144       10.3686802698        5.1887527202
  C         4.4144926673       14.5326421316        3.7228451442
  C         1.8116021193       12.7451532673       10.7221120008
  H         2.3245588149       14.4967995559        9.4702782720
  C         1.2478346566       10.9884736966       11.7450321365
  H        -1.3470007287       11.1008560297        5.1039699984
  H        -0.7985347156        9.4862652608        5.8343621924
  C         0.0373508241        9.8961293445        3.7402980423
  C         4.3405964546       15.9359631381        3.4084506926
  C         4.9813195164       13.6770471408        2.6673498545
  C         1.3843925720       13.3961617281       11.9799594455
  C         1.0369175457       12.0743238105       12.6248244635
  S         0.8963576397        9.4102805390       12.4439200162
  H         0.2097946361        8.8282437882        3.6480427902
  H         1.0144583124       10.2671370535        3.5204490257
  C        -1.0139196585       10.1207977516        2.6065917325
  N         4.0007438702       16.9292898761        4.3447421820
  C         4.6232358485       16.4741489261        2.1584714837
  C         5.1813114585       14.1907602786        1.4072152341
  H         5.1948824969       12.6480831846        2.7953737257
  C         0.0598666306       14.3362983882       11.8061798243
  C         2.4521673425       14.1474254631       12.8438044697
  C         0.5355211390       11.6367341236       13.8523932373
  C         0.5236638317       10.2374617437       13.9046622521
  H        -1.8650922416        9.4643138713        2.7477105865
  H        -1.4463993140       11.1042379760        2.6231722416
  C        -0.4398358711        9.8604325446        1.2237390855
  S         3.9977349443       18.3894109172        3.6146451558
  N         4.4524614734       17.8444611867        2.0851971207
  C         5.0911025417       15.6269308556        1.1094192006
  H         5.5595579551       13.5200537698        0.6829360498
  H         0.4012113270       15.2350319446       11.2923749520
  H        -0.2810955484       14.6146708691       12.8018215921
  C        -1.0183093910       13.6445646391       10.9613589511
  H         2.5768190791       15.1666562188       12.3386418981
  H         1.9249157589       14.3899288431       13.8125597159
  C         3.7993540654       13.4607684094       13.1142691939
  H         0.3495790030       12.3793084099       14.5823962864
  C         0.2535507569        9.4684042598       15.1360162155
  H        -0.0487050133        8.8307022177        1.2139156471
  H         0.3727803180       10.6524850988        1.1471030246
  C        -1.4810850660       10.0847917032        0.1801789439
  C         5.2862092525       16.0873022315       -0.2311906273
  H        -0.6793851305       13.3920688112        9.9804861255
  H        -1.2259819432       12.6890005814       11.3722914724
  C        -2.2645855693       14.5437766481       10.8029509823
  H         4.5474870417       13.6978008449       12.3126256491
  H         3.5470051137       12.3793357267       13.1286776186
  C         4.3556806243       13.6202391983       14.4868827425
  C         0.3276717305        8.1061265410       15.2921332402
  C        -0.0157307587       10.2782771449       16.3167733450
  H        -2.0614855349        9.1182333098        0.0831707397
  H        -2.2103857092       10.8756017625        0.3533157539
  C        -0.8960921370       10.1659721293       -1.2049692879
  H         5.2187038261       17.0967188743       -0.2547080911
  C         5.5737788854       15.5207088469       -1.4335372983
  H        -2.3599735399       14.6561708529        9.6814710389
  H        -2.0693154586       15.4987035310       11.2462001336
  C        -3.4873308799       13.9316159798       11.5446258613
  H         4.2823154737       14.6475301635       14.8016779873
  H         3.8012388209       12.9718153836       15.1135794864
  C         5.8083073792       13.0208637844       14.6406095021
  N         0.4215893325        7.1532467454       14.2903840150
  C         0.0842782620        7.5167410377       16.5614956674
  C        -0.1613592323        9.7495930976       17.6128163909
  H        -0.1492667290       11.3100504168       16.2353820561
  H        -0.1665631768        9.4645641150       -1.4282275528
  H        -0.6207964001       11.1726870986       -1.5432005671
  H        -1.6159844683        9.8921842661       -2.0154766027
  S         5.8449340565       13.8328239720       -1.8704954740
  C         5.5140250464       16.4521230134       -2.5878555617
  H        -3.1808894465       12.9568021679       11.9248777815
  H        -3.6891461911       14.6463504317       12.4093715842
  C        -4.7400608026       13.9095094492       10.7817650643
  H         6.0301460915       12.4706845403       13.6239584283
  H         5.8092450272       12.2486890600       15.4201639061
  C         6.8575694147       14.1226354132       15.0588832110
  S         0.3996771331        5.6726545907       15.0099817807
  N         0.1133475356        6.1537904066       16.5316221359
  C        -0.1795637056        8.2326163358       17.7538503441
  H        -0.4167052722       10.3563610141       18.4102501262
  C         5.8834999827       14.4150958053       -3.5614748790
  N         5.9417429545       15.7803279681       -3.6942084845
  O         5.4939203957       17.6848621339       -2.4856491120
  H        -5.5451015789       13.5597519985       11.3886419448
  H        -4.8954706498       14.9856814768       10.5399193116
  C        -4.8003961316       13.1369419504        9.5230842755
  H         6.9022094623       14.2223909072       16.1806015427
  H         7.7802705554       13.7304296049       14.7579216500
  C         6.6585385145       15.6136213822       14.5555626486
  C        -0.4343239778        7.4085787337       18.8435403763
  S         6.3704330992       13.3905575944       -4.9738526298
  C         6.2225113828       16.5203346336       -4.9126967999
  H        -3.9315230042       13.2545288001        8.8814257515
  H        -4.9257243754       12.0725810302        9.7040019253
  C        -5.9211513391       13.6689517220        8.6130667595
  H         5.7982855390       16.0347203180       15.0298305195
  H         6.3285443104       15.4713727924       13.5306922683
  C         7.9247908400       16.3583036885       14.6870454617
  H         0.0290991416        6.4155949995       18.8390202324
  C        -0.9648038201        7.5953389239       20.0762746870
  H         7.0442783117       15.9518882465       -5.2482595611
  H         6.6741138898       17.4192038532       -4.5697446928
  C         5.0965436244       16.5165694065       -5.9803465968
  H        -5.8301402675       13.3309740144        7.5573817163
  H        -5.6587717914       14.7505553020        8.5086655565
  C        -7.3155159154       13.4849622649        9.1611386142
  H         8.5067871792       15.9890406256       15.5149854751
  H         8.4096165291       16.3947476046       13.7555527377
  C         7.7427599961       17.8541258182       15.0324552420
  S        -1.6993786006        9.0106256835       20.6073857618
  C        -1.0332198111        6.4749120686       21.0179885959
  H         4.8874224854       17.5929307891       -6.1574355825
  H         4.1746237329       16.1313753544       -5.5958686901
  H         5.3630293693       15.9710100264       -6.8604065392
  H        -7.7708206091       14.3606114991        9.6739198787
  H        -8.0707429773       13.4416739053        8.3325013758
  H        -7.4462728354       12.6009116805        9.8678949950
  H         7.1941063144       18.1050124763       15.9526189261
  H         8.7391644335       18.1708270198       15.3990008163
  H         7.4450231392       18.4890256435       14.1576615610
  C        -1.9957747145        8.1759847658       22.1058234220
  N        -1.7286764851        6.8875350252       22.0905095391
  O        -0.5086818794        5.3859877593       20.7816507821
  S        -2.8488540455        8.6691527420       23.5473651264
  C        -1.8054320740        6.0097071081       23.2869362523
  H        -2.0207246087        4.9796703497       22.9103976329
  H        -2.7757812080        6.1370083876       23.8615518092
  C        -0.6152115960        5.9845091493       24.2129814397
  H         0.3459486244        5.7137278145       23.6977322438
  H        -0.7889105593        5.3496437008       25.0382980745
  H        -0.4574286499        6.9399119162       24.7077672737
