352
i =
  H        -3.8733127699       14.3083911884       16.5044441547
  C        -3.1152974367       13.4803643297       16.4875880324
  H        -3.6811404049       12.6386711476       16.6160554931
  C        -2.1660988306       13.6825866576       17.6806624858
  C        -2.4253942793       13.1752289807       15.2110732238
  C        -2.7755711296       13.4955889488       19.0820507190
  H        -1.3420080855       12.9290830354       17.5513598113
  H        -1.7724891701       14.6812211307       17.6324627806
  H        -1.9165430039       13.9749009995       14.7517007796
  H        -1.5659604778       12.4729667199       15.4537830254
  H        -2.9555895072       12.5384698043       14.4995276848
  C        -1.6521875469       13.2244928253       20.0847557093
  H        -3.5736051509       12.7213590646       19.0488807336
  H        -3.3049658678       14.3863706248       19.4010988081
  C        -2.1927185792       13.1260326270       21.5233362643
  H        -1.2360365369       12.2051844357       19.8347889426
  H        -0.7928031638       13.9362361481       20.1076325609
  C        -1.1316136616       12.5626135065       22.4261701618
  H        -3.1493022305       12.5314609464       21.6712093573
  H        -2.5022975502       14.1287845509       21.8605722742
  C         0.0661686013       13.4766705935       22.6375195795
  H        -1.6828604381       12.3682933168       23.3432928577
  H        -0.8124001207       11.6029429850       21.9289187399
  C         1.2542009121       12.7563505989       23.3048287334
  H         0.4931396389       13.8372052590       21.6858457261
  H        -0.1383739087       14.3990178637       23.1817202071
  C         1.7041364175       11.5228326121       22.6677595115
  C         0.8241644545       12.0822035714       24.5367080343
  C         2.4301416643       13.7274415376       23.6051769914
  C         1.6035786789       10.4196378376       23.4466530182
  C         2.2163731480       11.1460418958       21.3532471523
  C         1.0145561125       10.7544685696       24.6781131035
  C         0.3144264816       12.6469479308       25.6606675924
  H         2.7670880905       14.2528798003       22.7155741939
  H         2.0550626577       14.4808936006       24.2576178731
  C         3.6634951263       13.0690486871       24.2158263373
  S         2.0552073741        8.8717686865       22.7315599031
  C         2.3972506701        9.7876483959       21.2676338573
  H         2.4456545446       11.8977263337       20.6939912380
  C         0.6036709972       10.1209602816       25.7918232532
  H         0.2043137386       13.6973994982       25.5841733838
  C        -0.0915822199       11.9769450996       26.7700707593
  H         4.0682572878       12.2357880082       23.6024470746
  H         3.4602151528       12.5484905961       25.1448446040
  C         4.7906446154       14.0822016907       24.5310994699
  C         2.7172432427        9.0769564889       20.0316244367
  C         0.0219013903       10.6409252222       26.9470715207
  H         1.0470454586        9.1368654333       25.8500711580
  C        -0.4784210931       12.3577162995       28.0656720262
  H         5.3908619606       13.7550582814       25.3785592818
  H         4.3979780936       14.9310537383       25.0885557980
  C         5.5776463948       14.7042025120       23.4286410697
  C         2.6400885679        7.6996709040       19.7766334222
  C         3.1075456969        9.8844288149       18.8649299909
  C        -0.3937591709        9.9293268813       28.2176728486
  C        -0.6391200062       11.2676032331       28.9297889824
  S        -0.7109345053       13.8683728304       28.8157258671
  H         6.3156088313       15.2054093026       23.9676032392
  H         4.8027408772       15.4185241583       23.0019271559
  C         6.2336174939       13.6498123643       22.4497199998
  N         2.2768360151        6.7597840605       20.7133521907
  C         2.8370408949        7.1761518025       18.4789391255
  C         3.3115130191        9.3837443017       17.5559240411
  H         3.2602018524       10.9592518605       18.9224663698
  C         0.7552106609        9.0828787447       28.9408929008
  C        -1.7097098940        9.1361484377       28.0536726735
  C        -1.0240268301       11.7150085913       30.2349242521
  C        -1.0912281136       13.1147343576       30.3459111869
  H         7.2911276959       13.8838750626       22.1205126019
  H         6.3071245360       12.6637106633       22.9482126321
  C         5.2504994945       13.4677727058       21.2381410392
  S         2.3667404636        5.3137340013       19.9036734409
  N         2.5669586038        5.8433708360       18.4261388502
  C         3.2602206326        7.9564685374       17.3494851451
  H         3.4694235854       10.1453968720       16.7573827889
  H         1.2191313092        8.4197763394       28.2287125501
  H         0.2888063035        8.5077367903       29.7551593641
  C         1.9579453544        9.9418534387       29.6366994957
  H        -1.5006285070        8.1933576406       27.5098084072
  H        -1.8992258480        8.7412346191       29.1136466741
  C        -2.9776628855        9.9126211503       27.5616628479
  H        -1.3483877483       10.9470530206       30.9086014323
  C        -1.3501545065       13.9408169168       31.6137026024
  H         4.9198478350       14.4250703491       20.7327659109
  H         4.3247534059       12.9368110044       21.5077636899
  C         5.9983745579       12.6966177071       20.1335537452
  C         3.5098110031        7.2537224447       16.1198733076
  H         2.7942753965       10.1425956112       28.9154359009
  H         1.6245388363       10.9324305386       29.9390846931
  C         2.4818820622        9.1698463496       30.7720804469
  H        -2.8523102113       10.2963279283       26.5595792411
  H        -3.1351970364       10.7968317113       28.2014949416
  C        -4.2048454151        9.0244568696       27.7313540766
  C        -1.3699677474       15.3751090855       31.6735738344
  C        -1.5984379840       13.2187262484       32.9538600399
  H         6.8075041142       12.0578507365       20.4965324556
  H         5.2903076586       12.0254368636       19.5622596239
  C         6.7011024463       13.8033320947       19.2317325077
  H         3.7667429128        6.2255131600       16.3258470257
  C         3.7444400120        7.6975777351       14.8266538646
  H         2.8401568167        8.2648118178       30.3529324886
  H         1.6399606044        8.9394831519       31.4139396286
  C         3.6105487586        9.7828581033       31.6692629730
  H        -4.0177567420        8.0873967971       27.1675357077
  H        -4.2963036841        8.7533441559       28.7751074145
  C        -5.5395114703        9.6145894889       27.2386016230
  N        -1.1542571207       16.2346697016       30.5548195697
  C        -1.7057158491       16.1215894694       32.7942836273
  C        -1.8845630112       13.9431145857       34.1130546669
  H        -1.3558449273       12.1984860611       33.0287214208
  H         6.1028783956       14.7424552233       19.0973163983
  H         7.6838988852       14.0686819438       19.7248155868
  H         6.7917352866       13.2739106276       18.2263876146
  S         4.0298617434        9.3102865687       14.3152905340
  C         3.8263430048        6.6508140410       13.8116378575
  H         3.7776599204       10.8064090631       31.5304890272
  H         3.4150203217        9.6017891562       32.7429717745
  C         4.8931937245        9.0119382976       31.2888809540
  H        -5.7016306747       10.5272870757       27.7717362890
  H        -6.3496290535        8.8967361587       27.6037292893
  C        -5.6929937404        9.9851978723       25.7680074631
  S        -1.3198280629       17.8045209051       31.0320078352
  N        -1.6060304470       17.5120612161       32.6447298368
  C        -1.9717071276       15.4639115694       34.0535468280
  H        -2.0818038177       13.4648649244       34.9837819053
  C         4.0534391697        8.5360673779       12.6936967096
  N         4.0846112066        7.2160672269       12.6175221145
  O         3.5289651652        5.4986826053       14.0029472361
  H         5.7599466001        9.3409845653       31.8429288375
  H         5.1563712089        9.0724869479       30.2304489231
  C         4.9341070122        7.5221439479       31.7396969253
  H        -4.8735975250       10.7246720733       25.4431448302
  H        -5.5664033489        9.1755600920       25.1199213588
  C        -6.9421417854       10.7620536763       25.4826024426
  C        -2.3303301268       16.2858829835       35.1851469066
  S         4.6177582066        9.4046553386       11.2352457981
  C         4.0750135076        6.4418002014       11.3954645865
  H         5.5254222191        7.3435774593       32.5907247242
  H         3.9675737335        7.1406763485       32.0147798703
  C         5.4722571129        6.6272291419       30.6744226862
  H        -6.7614134807       11.6510430217       24.8024878343
  H        -7.2854058303       11.2773439623       26.4036821620
  C        -8.0994834720       10.0395494957       24.8345108558
  H        -2.0108601028       17.3109889754       35.1907202168
  C        -2.8880555104       15.9342799511       36.4101218525
  H         4.8092739034        6.8457432406       10.6648537014
  H         4.3741134891        5.3892815824       11.6713184116
  C         2.6720828531        6.4058260664       10.7927707262
  H         4.9784667629        6.7499905199       29.7424535929
  H         5.1680637929        5.6255109200       31.0028380266
  C         6.9840729466        6.7032266149       30.5039056851
  H        -8.5604430839       10.5214764843       23.9862540250
  H        -7.6605581618        9.1176805331       24.4071213000
  C        -9.1772599067        9.8123713637       25.9268832603
  S        -3.3956747485       14.4082543545       36.8803264139
  C        -3.1118189972       17.0030367036       37.4015735667
  H         2.5726697718        5.5638903779       10.1120373543
  H         1.9629539610        6.2717802638       11.5697453007
  H         2.4607982289        7.3006968804       10.1862172600
  H         7.3434134533        6.6240362030       29.4198735825
  H         7.3110950745        5.8314430685       30.9643788369
  H         7.3514380140        7.5361290158       30.9609459462
  H        -9.6152999680       10.7791469146       26.1287410115
  H        -8.7753740300        9.3947238444       26.8508107971
  H        -9.9911997015        9.1393371144       25.6090428189
  C        -3.8498497364       15.1369971517       38.4104742433
  N        -3.7341117526       16.4668151780       38.4337070884
  O        -3.0616214870       18.2092898650       37.1403069575
  S        -4.4744706140       14.2635067900       39.8414612054
  C        -4.0692261397       17.2256847807       39.6734386473
  H        -4.2604448498       18.2469169736       39.4645176383
  H        -5.0578725303       17.0085822784       40.0740269947
  C        -2.9133915813       17.1624175528       40.7211609636
  H        -2.8833745141       17.9653519472       41.4206077502
  H        -2.9412462042       16.2847567413       41.3647396502
  H        -1.8821169420       17.1189618956       40.2896785031
  H         7.1596036262       11.8783566573        3.8516102196
  C         7.8101535300       11.0380730765        3.6829890024
  H         7.1780516718       10.1056477687        3.6256786833
  C         8.8534547892       11.1425867207        4.7691203121
  C         8.3872855940       10.9100841139        2.2250757238
  C         8.1225336175       11.1052237023        6.0995882188
  H         9.6177840623       10.3293333642        4.7743954452
  H         9.4484614970       12.0581230964        4.6548723180
  H         8.9687111334       11.8186966956        1.9758419941
  H         7.5278562578       10.8017247626        1.4780010033
  H         9.1297127540       10.1002135367        2.1520538991
  C         7.3478686291        9.7024285875        6.3388717653
  H         8.8487364709       11.4119354914        6.9486825445
  H         7.3724666904       11.9285135019        6.0824062007
  C         6.7220549696        9.5800067951        7.7402031624
  H         8.0953589671        8.9185457467        6.0773018591
  H         6.5879417026        9.5132849463        5.6883124402
  C         5.4319348517       10.4454510811        7.9137106161
  H         7.4019202776        9.9767470591        8.4299773871
  H         6.5696993200        8.5717917903        8.1745498796
  C         4.1904958713        9.6585558209        7.3132406914
  H         5.2550634173       10.7087339646        8.9221646261
  H         5.5155630708       11.3789378436        7.4104095272
  C         2.9500719790       10.4981338350        7.1816113081
  H         3.8496599129        8.8558024352        7.9104436271
  H         4.3326736280        9.2701568506        6.3222490275
  C         3.2921540021       11.7986204518        6.5063375141
  C         2.4805866666       11.1378510714        8.3667546196
  C         1.7939957479        9.6970908187        6.5943949384
  C         3.0991383829       12.8956558532        7.3123757676
  C         3.7775562072       12.2442775226        5.1996107986
  C         2.5555585829       12.4667844481        8.5164653522
  C         2.0929635162       10.5033263569        9.5441120659
  H         2.1894751067        9.1147998263        5.6901359387
  H         1.5791242642        8.9000630730        7.2546211751
  C         0.5113108674       10.4721554047        6.1288708363
  S         3.4374463293       14.4105461778        6.5205959058
  C         3.7807609516       13.6090924370        5.0602100046
  H         3.9783948621       11.4746975358        4.4742650521
  C         2.3263902775       13.0080836403        9.7245855810
  H         2.0163457669        9.4740394497        9.6065767235
  C         1.7718830279       11.0832939994       10.7455178153
  H         0.8886676256       11.4070442273        5.7480789753
  H        -0.1550271789       10.6237851290        7.0698275135
  C        -0.3635362371        9.7873274681        5.0320994101
  C         4.2949452291       14.3733080424        3.8792808777
  C         1.8661678019       12.3806766839       10.8849443089
  H         2.4423995999       14.0828090769        9.8080542577
  C         1.3878339235       10.6395198971       12.0117881547
  H        -1.3451205151       10.2790385336        5.1470443609
  H        -0.4150903564        8.7516396818        5.2892855683
  C         0.3170487415        9.9907507446        3.6659478257
  C         4.3775392184       15.7829624893        3.7554095816
  C         4.7123584861       13.5640136436        2.6996650853
  C         1.6281057264       13.0583137788       12.1800235100
  C         1.2412120402       11.7191484014       12.8497009582
  S         0.9713319827        9.0711896577       12.7208424322
  H         1.2237090492        9.3214517702        3.5677587980
  H         0.6267890463       11.0020058941        3.5652278275
  C        -0.5980855967        9.6301576260        2.4578060334
  N         3.8886404889       16.7365016096        4.6931255291
  C         4.5982489474       16.4038644497        2.5055657975
  C         4.9682074715       14.2296235711        1.5080627618
  H         4.8943746048       12.5084141599        2.7375469686
  C         0.4111161469       14.0521750163       12.1248266053
  C         3.0031275030       13.6701252112       12.7417760188
  C         0.8780135356       11.2522580715       14.1056280218
  C         0.8014415780        9.9024376108       14.1279570581
  H        -1.5292576173        9.2502272515        2.8232876841
  H        -0.8354610407       10.5432300198        1.9280455892
  C         0.0115898458        8.7613490048        1.3967256780
  S         3.8572662522       18.1872483910        3.9964147012
  N         4.5295356423       17.7872963070        2.5387216280
  C         4.9450935200       15.6984686898        1.3284918039
  H         5.2580167023       13.6058339020        0.6777065119
  H         0.6326037558       14.9981247558       11.5431059895
  H         0.2259382681       14.2941883464       13.1607963222
  C        -0.8614927466       13.4046771796       11.5755772894
  H         3.8172748277       12.9661293696       12.7974518819
  H         3.4119598894       14.3895976682       12.0181746926
  C         2.7208259430       14.3361291265       14.0023775228
  H         0.7200228204       11.9661100320       14.8963589223
  C         0.3199761877        9.1943328511       15.4438782908
  H        -0.2443400538        7.7444434236        1.7298051153
  H         1.1352610529        8.9533244989        1.2985442270
  C        -0.7895268010        8.9024483429        0.0361082546
  C         5.1625370967       16.3486726177        0.1135757284
  H        -0.6534418940       12.8774271057       10.6074707914
  H        -1.2128468658       12.6473145957       12.2600635243
  C        -1.9955010170       14.4185860456       11.2759180300
  H         2.2888785817       13.7104178756       14.7470092789
  H         2.0632389364       15.1476034979       13.8781975223
  C         4.0428471194       14.8447015537       14.6801566630
  C         0.2129135973        7.8004887402       15.6095446236
  C         0.0625481449        9.9833127848       16.6905750412
  H        -1.3992880305        7.9989848430       -0.1856912084
  H        -1.4216265852        9.7282474805        0.1109170225
  C         0.0603379775        9.1366956553       -1.2595072793
  H         4.9349557302       17.3861247255        0.1569571844
  C         5.5718822130       16.0414543381       -1.1530805731
  H        -1.6985838976       15.0770555583       10.5054602209
  H        -2.3040103970       14.9633488153       12.1618146624
  C        -3.2193759929       13.5620884679       10.8600797536
  H         4.6115571270       15.4613393410       13.9880942308
  H         3.7990523131       15.4548584695       15.5658402674
  C         4.9890246108       13.7221576096       15.2190178098
  N         0.5993469913        6.8629851410       14.7059697333
  C        -0.1352566689        7.2422524332       16.8543435183
  C        -0.3159204283        9.4498682932       17.9147052358
  H         0.2201802515       11.0429420642       16.6990828918
  H        -0.2698271401        8.5065851220       -2.0977812707
  H         1.1247605368        9.0968669932       -0.9628449527
  H        -0.1949181308       10.2278900168       -1.4234794903
  S         6.0308961469       14.4520861226       -1.6468766918
  C         5.5843204180       17.0493042173       -2.2242321793
  H        -3.0422822009       12.6377271049       10.3991703324
  H        -3.7083951572       13.2861883981       11.8145249831
  C        -4.1967553759       14.3333305880        9.9242809552
  H         4.5876788884       12.7754929762       14.8703850872
  H         4.9712372571       13.5336380029       16.3080113656
  C         6.4430785678       13.9659805734       14.8650202350
  S         0.3533423011        5.3423981479       15.3159015614
  N        -0.2955337534        5.8811730150       16.7654691255
  C        -0.3751694715        7.9638911835       18.0708990609
  H        -0.5947731505       10.0933449399       18.6972144777
  C         6.2524711455       15.2105383336       -3.2516343610
  N         5.9949927836       16.5394370797       -3.4205171064
  O         5.1665047143       18.1935856024       -2.0648757803
  H        -4.6910877739       15.0892578069       10.5108031015
  H        -3.5743610610       14.8706874063        9.1712306215
  C        -5.0371086659       13.4222009515        9.1703176626
  H         7.0750554070       13.1010887522       15.1118775068
  H         6.4659847853       14.1126785763       13.7745026999
  C         6.9318908773       15.2830702736       15.5899817320
  C        -0.8035402524        7.2518703030       19.1909518434
  S         6.8493073171       14.4415128224       -4.6482043195
  C         6.1970949910       17.3351531161       -4.5858760717
  H        -4.5888136419       13.4447691043        8.2024754798
  H        -4.8368468796       12.4343846572        9.5157519431
  C        -6.5547691465       13.7235380595        9.0446913198
  H         7.3471857172       15.1899902720       16.5633967083
  H         6.0818647426       15.8155511435       15.8781520439
  C         7.8528634367       16.0152451432       14.7127292080
  H        -0.7553349962        6.1733316011       19.0996647678
  C        -1.2319638471        7.5917836243       20.4473082431
  H         7.1915240767       17.2072822810       -5.0794209687
  H         6.0318086602       18.3743597213       -4.3566028550
  C         5.0460499080       17.0510812510       -5.5738668962
  H        -6.9265758384       12.8722035114        8.5132656914
  H        -6.6749446974       14.6493603279        8.4585840573
  C        -7.2081922747       13.9423232478       10.4234839920
  H         8.4490411501       16.7236359237       15.3257614480
  H         8.6411836780       15.3539619751       14.2358701824
  C         7.1425445118       16.7274850654       13.5218537674
  S        -1.5928796378        9.2005277659       20.8684119570
  C        -1.3012005847        6.5968869868       21.4811204059
  H         5.3285656866       16.2888243827       -6.2067532889
  H         4.8551962368       17.9671652481       -6.2148597222
  H         3.9955820400       16.7927238698       -5.2510855536
  H        -8.2459476404       13.9192656199       10.2709660010
  H        -7.0110187638       13.0603620760       11.1393424219
  H        -6.9971511636       14.8710048797       10.9279925024
  H         6.0783130243       16.8543771949       13.6410998978
  H         7.5198714092       17.7296515933       13.4380236325
  H         7.3296380612       16.1592286384       12.6086395108
  C        -1.8675556780        8.4961799947       22.4774731467
  N        -1.7851153085        7.1766162485       22.6125635798
  O        -1.1909428964        5.3452163950       21.2640994945
  S        -2.3361110484        9.4134127144       23.8969833515
  C        -1.9263706497        6.4928265963       23.8791146018
  H        -2.1550169132        5.4594214883       23.7472323272
  H        -2.8497142773        6.8677212464       24.3240579476
  C        -0.5732697109        6.6195074712       24.7243769079
  H        -0.6281616459        7.6293753398       25.1908289973
  H         0.2938460519        6.5188827165       24.1459997797
  H        -0.4855950465        5.9119009796       25.5685767158
