352
i =
  H        -3.9474674594       12.4842719225       16.8194770780
  C        -2.8730070033       12.6946527983       16.6162066805
  H        -2.4030537878       11.7235155074       16.8222222081
  C        -2.3841326224       13.7288899803       17.6768737072
  C        -2.5703654537       13.0437620485       15.1302040258
  C        -2.8434546106       13.4321347388       19.1383849116
  H        -1.2785378592       13.9719403465       17.6202976013
  H        -2.9726517849       14.6106855248       17.4702614703
  H        -2.6982397463       12.2060456103       14.4248836547
  H        -3.1204672475       13.8797337722       14.7526516624
  H        -1.5578256361       13.2853833788       14.9877285007
  C        -1.7346462895       13.1518371524       20.1866025128
  H        -3.5428521858       12.5920924212       19.2577714402
  H        -3.3878937474       14.2883140344       19.3811569361
  C        -2.2257185185       13.0318045139       21.6130718375
  H        -1.0754885411       12.4072200668       19.7837820441
  H        -1.1115885702       14.0904644215       20.0608761793
  C        -1.2889125695       12.4225329981       22.5831365993
  H        -3.1709728411       12.4086408274       21.5896541843
  H        -2.5221969366       14.0246353705       21.9777742645
  C        -0.1413221612       13.3285646142       22.9053202596
  H        -1.8291712891       12.1272293616       23.5421240077
  H        -0.9194531197       11.5274257202       22.1867987929
  C         1.0070035581       12.5204404705       23.7021756626
  H         0.3924240597       13.7412433102       22.0387470689
  H        -0.5408591623       14.2157404686       23.4171886496
  C         1.4153138324       11.1812902230       23.1336309108
  C         0.5188172383       11.8358817848       24.9411778247
  C         2.2634620676       13.4641436166       23.8151221324
  C         1.1687332846       10.0918350889       23.9411600673
  C         2.0804935895       10.8314081581       21.8908495084
  C         0.6659793632       10.5226508703       25.1758581265
  C        -0.0036030249       12.5445194916       26.0237551180
  H         2.4338891840       13.7974103354       22.7340962263
  H         2.0112316660       14.3552880788       24.4349331769
  C         3.5389712138       12.7076070521       24.4142612972
  S         1.6739538422        8.5855927295       23.2187232062
  C         2.2721359850        9.4348194440       21.8159349665
  H         2.2447225788       11.6692406200       21.2350539136
  C         0.2880038151        9.9705736836       26.2954550245
  H        -0.0290154720       13.6445936452       26.1081481306
  C        -0.2676478166       11.9670942282       27.2195113187
  H         3.9069536851       12.1614793697       23.5258851530
  H         3.3817672912       12.0279854071       25.3007229046
  C         4.6966533340       13.6227423014       24.8579012232
  C         2.7741113299        8.7387131682       20.5756371281
  C        -0.1782807816       10.6197424044       27.4433559101
  H         0.3106831361        8.8806805580       26.4280570405
  C        -0.6520144341       12.4387514796       28.4331937625
  H         5.4246109253       13.0586044114       25.4393114206
  H         4.4681284583       14.3534565816       25.6117796212
  C         5.3280136321       14.5153246554       23.6440969172
  C         2.7275200561        7.3812407689       20.2659097132
  C         3.1685205122        9.6230969195       19.4595352601
  C        -0.6098785375        9.9849350280       28.6812250885
  C        -0.8557038019       11.3828311981       29.2723555269
  S        -0.9159115379       13.9337516143       29.0738865826
  H         6.0850417649       15.1481208502       24.1160788509
  H         4.5395787432       15.1730519820       23.2602710138
  C         6.0933187729       13.7455203459       22.6041771509
  N         2.4447405321        6.4047459387       21.1974411723
  C         2.9810774894        6.8729415228       18.9871114413
  C         3.3349316124        9.1196953113       18.1749337252
  H         3.2812866311       10.7181524528       19.5342676092
  C         0.4949476395        9.2386185242       29.4446487647
  C        -1.9224607115        9.1159022560       28.4926855875
  C        -1.3170769761       11.8268393043       30.4855999642
  C        -1.3913026493       13.2075445869       30.5963898923
  H         7.1162082291       14.0181815325       22.5661524113
  H         6.2002180733       12.7588631821       22.8847129395
  C         5.4512671774       13.8682805349       21.2667260456
  S         2.6304907923        4.9910788885       20.4386059095
  N         3.0214296810        5.4861744947       18.9712451622
  C         3.2346520524        7.7077656539       17.8771180385
  H         3.4752059582        9.7757764625       17.3130342597
  H         0.6521696317        8.2391046759       29.0887256959
  H         0.0155913253        9.0764232559       30.4043564869
  C         1.7937005349       10.0425560633       29.6586872222
  H        -1.6953032594        8.3306237438       27.8008553033
  H        -2.1623251890        8.4809890898       29.3198640887
  C        -3.0966699126        9.8993213526       27.9445509828
  H        -1.5811021239       11.0393475501       31.2327918724
  C        -1.7540499429       13.9801020876       31.8670379640
  H         5.6735348399       14.9433775911       20.9899889713
  H         4.3214443469       13.7205326333       21.3685005540
  C         6.1451532148       12.9215162988       20.2931226350
  C         3.3226264221        7.0512550993       16.5826066334
  H         2.2231952105       10.2872410927       28.6373412234
  H         1.7276508260       11.1094076288       30.0602666194
  C         2.8469776140        9.3805673822       30.5352161224
  H        -2.7856552303       10.2091771512       26.9273252331
  H        -3.4593640108       10.7848556354       28.5232223550
  C        -4.4059538307        9.0246994087       27.7291863782
  C        -1.7537123246       15.3425267557       31.9658481611
  C        -1.9564698758       13.2804642183       33.1510878119
  H         7.2524266961       12.9747899751       20.4261121165
  H         5.8081784102       11.9592271543       20.5101757509
  C         5.6431978135       13.1873562294       18.8949883142
  H         3.3642943869        5.9557811730       16.5391866838
  C         3.5739392781        7.6222412434       15.3166497201
  H         3.1166928418        8.4882098595       30.0275836379
  H         2.4376614746        9.0314125820       31.4660167871
  C         4.1716115354       10.0913988113       30.8061826439
  H        -4.2020777545        8.2564340807       27.0024172195
  H        -4.5948672418        8.3239201816       28.5823635767
  C        -5.5280070704        9.8605149388       27.1309860551
  N        -1.5176585431       16.1986800408       30.9254481714
  C        -2.0553972906       15.9482597099       33.1151204513
  C        -2.1456619604       13.8810018381       34.4208274935
  H        -2.1536634623       12.2317693827       33.0623186702
  H         5.8116411107       14.2383579188       18.5663842091
  H         6.2283433755       12.6776848113       18.1009155462
  H         4.6547222486       12.8616148631       18.8793245123
  S         3.7526699746        9.3299366891       14.9442165186
  C         3.6506109816        6.7061126608       14.1632201383
  H         4.2578409025       11.0992316785       30.4517961065
  H         4.2572921394       10.1301555449       31.8913080406
  C         5.3410096175        9.2369379419       30.1750206961
  H        -5.0473086705       10.8357618900       26.8403125566
  H        -6.3179980629       10.1715925336       27.9234279967
  C        -6.2989492194        9.2948511325       26.0327597221
  S        -1.5400730935       17.7462102259       31.4827657425
  N        -1.8735039926       17.3601446262       33.0554266550
  C        -2.3113410949       15.3394969050       34.4320192426
  H        -2.2516258365       13.2739070188       35.2987159424
  C         4.0293862388        8.7356831729       13.2470145295
  N         4.0203245188        7.3866162922       13.0775829192
  O         3.4218270320        5.4548342123       14.2880844557
  H         6.2127006892        9.8717149454       30.3389591809
  H         5.0830719482        9.1067963873       29.1768467815
  C         5.6972095558        7.9079210664       30.8663203572
  H        -5.6383348015        9.0167787752       25.2327836212
  H        -6.7758358160        8.3993300060       26.4866181979
  C        -7.1749042542       10.3274046338       25.4377747501
  C        -2.4051000653       16.1222864109       35.6155793118
  S         4.4619924118        9.7050053148       11.9238204555
  C         4.1313075598        6.6943496148       11.7953270569
  H         6.5661945113        8.0853021827       31.4258859341
  H         4.9633861924        7.5467497211       31.5943587541
  C         6.0734776204        6.7854047547       29.9973252569
  H        -6.6180096453       10.8706199894       24.6879782232
  H        -7.3262177332       11.0222153025       26.2774108118
  C        -8.3888964442        9.6890135901       24.8827717874
  H        -2.0970500688       17.1405096752       35.4787139436
  C        -2.9031602159       15.8480745237       36.8197386859
  H         4.7802901462        7.2117139191       11.1044861291
  H         4.6188604378        5.7925969530       11.9872700715
  C         2.8136788330        6.4206446813       11.1487512031
  H         6.9747975170        6.9666050089       29.4056790291
  H         5.2913608952        6.5843189377       29.2478291801
  C         6.3590717127        5.4886346404       30.8307309515
  H        -8.7499332721       10.1835077150       24.0553476774
  H        -8.1630253520        8.6541388366       24.4732559031
  C        -9.4456902933        9.5254891669       26.0177802486
  S        -3.4057801725       14.3159679800       37.4197917090
  C        -2.9979733316       17.0271082436       37.7472964982
  H         1.9933164488        6.1121198818       11.8073929448
  H         2.5266990177        7.2266947605       10.5231677909
  H         2.9787558397        5.5704592047       10.4956059136
  H         5.4632270740        4.8907027588       31.0695171747
  H         7.0218640092        5.6375873424       31.6842264285
  H         6.9303797473        4.8309251385       30.2466472255
  H        -9.5786507494       10.4246123307       26.4812513038
  H        -9.0494947453        8.8772998553       26.7686041979
  H       -10.3227603778        9.0978267645       25.5510897870
  C        -3.6574735054       15.2007567331       38.9021034190
  N        -3.4848700678       16.5550518110       38.9105061236
  O        -2.6328969018       18.1706713952       37.4715040367
  S        -4.2008973690       14.4410001114       40.4186682498
  C        -3.5044406350       17.4459269698       40.0782226247
  H        -3.5877353422       18.5121062544       39.7975914697
  H        -4.3307276909       17.2127933945       40.7478822601
  C        -2.1392216975       17.3179389850       40.6908446941
  H        -2.0026465081       18.0521368339       41.5364080974
  H        -2.1109204094       16.3736269615       41.1912068539
  H        -1.3502670155       17.4929736687       39.9302425957
  H         7.3514609690       10.7903418669        3.7524468169
  C         8.1420878324        9.9992658107        3.7259776642
  H         7.4969348476        9.1813671965        3.9214435481
  C         9.1228707589       10.4875226627        4.8829674641
  C         8.6101018606        9.9742168257        2.2598849809
  C         8.2952489439       10.5082237684        6.1836085824
  H        10.0180672659        9.9447095270        4.9750270549
  H         9.4348441657       11.4977577510        4.6181679022
  H         8.7515821028       11.0091378125        1.9481388206
  H         7.8100434494        9.5987507890        1.5975126815
  H         9.5362573890        9.3481859776        2.0557482352
  C         7.4371154658        9.3046950858        6.6706135893
  H         8.9692802234       10.8844041354        6.9820081495
  H         7.6459770282       11.2982211114        6.0821350432
  C         6.8053834070        9.4446074671        8.0835178971
  H         7.9972588975        8.4230465025        6.6529582582
  H         6.6169141378        9.1404170758        6.0462042780
  C         5.5545647004       10.3735854946        8.1489840343
  H         7.5025309738        9.9987728413        8.7437462000
  H         6.8513371736        8.4720149388        8.5287292897
  C         4.3081310708        9.6079164655        7.7338968916
  H         5.4384379510       10.7838752360        9.1686615563
  H         5.7080013134       11.1221039925        7.3914051821
  C         3.0606901393       10.4317680564        7.3954257489
  H         4.1118155206        8.7497082415        8.4090733800
  H         4.5279904009        9.1588630524        6.7867977828
  C         3.3284837562       11.7969643081        6.6729044154
  C         2.5379471168       11.1020215624        8.5787011394
  C         1.9780973091        9.7489027471        6.5244838257
  C         2.9105944174       12.8968040792        7.4056382154
  C         3.7940001491       12.2093237957        5.3730509849
  C         2.4792189394       12.4658857770        8.6259110172
  C         2.0571299667       10.5161017390        9.7094689428
  H         2.4560393306        9.5025336376        5.5756194758
  H         1.8256917089        8.7817322630        7.0270707418
  C         0.6114535657       10.3506720977        6.3052582740
  S         3.2045013916       14.4464926002        6.6619010221
  C         3.7525037849       13.5517162882        5.2303700188
  H         4.0351602152       11.4712051056        4.6931597476
  C         2.1336714471       13.1102329736        9.7702488378
  H         1.8856853146        9.4753788795        9.7529654488
  C         1.6622913854       11.1485620805       10.8113262053
  H         0.8874082551       11.3179461710        5.8602485090
  H         0.0508488431       10.5146560132        7.2708137398
  C        -0.3076536667        9.5359452904        5.3431806588
  C         4.1443234014       14.2419046039        4.0154949185
  C         1.7412709334       12.4679139611       10.9219497036
  H         2.1545832680       14.1875072168        9.7551165816
  C         1.2551989219       10.7680215088       12.0659607877
  H        -1.3154488541       10.0752888739        5.3060077362
  H        -0.4552029685        8.4537400660        5.5970023739
  C         0.1982993287        9.5731396586        3.8201410516
  C         4.0231069658       15.6314168788        3.7990390994
  C         4.6415357063       13.4354881223        2.9306896736
  C         1.3003403059       13.1884022523       12.1661984911
  C         1.0108663426       11.8847410147       12.8929378182
  S         0.9796736135        9.2904753367       12.8044700030
  H         0.8745695880        8.7475088111        3.5119701022
  H         0.8162723974       10.3790560304        3.7096410415
  C        -0.9247474392        9.6396013453        2.7955110167
  N         3.6521136078       16.6311870976        4.7948023017
  C         4.2939862996       16.2696004548        2.5959446801
  C         5.0572165921       14.1067851402        1.7588608280
  H         4.9314924184       12.4240952143        3.0162983357
  C        -0.0219707075       14.0016717128       12.0401917766
  C         2.5132007572       13.9560095120       12.8637908498
  C         0.5810026903       11.5046256000       14.1640238757
  C         0.5657599636       10.1323745892       14.3014744687
  H        -1.5611960708        8.8185298501        3.0242388526
  H        -1.6390628058       10.5054622452        2.9290528103
  C        -0.4231111312        9.7392316375        1.3700724546
  S         3.6641616863       18.1087252823        4.0820181227
  N         4.1133953711       17.6262102315        2.5921879265
  C         4.8191984047       15.5616385356        1.5224778746
  H         5.5373195099       13.3481794721        1.1249226368
  H         0.1082723152       14.9337541647       11.4300025099
  H        -0.5061457448       14.2927981616       12.9900295643
  C        -1.1710858053       13.1991281386       11.4924852955
  H         2.8670557986       14.7769062258       12.3180622573
  H         2.0852800629       14.5263199875       13.7113676326
  C         3.6255596763       13.1311246311       13.4684094151
  H         0.4210043489       12.2304534908       14.9654207907
  C         0.2363921572        9.3026945700       15.5007075211
  H         0.3692635291        8.9652340828        1.2423683790
  H         0.0190132374       10.7437505180        1.1732559150
  C        -1.6011524275        9.4393461376        0.4104402430
  C         5.1665756493       16.2602347560        0.2941548507
  H        -0.9066819749       12.8988448585       10.4189489536
  H        -1.3262281835       12.2602243902       11.9822986653
  C        -2.4821906092       13.8953572007       11.3296323601
  H         4.1260564628       12.6077531663       12.6513386341
  H         3.2521917686       12.4126746886       14.2534553001
  C         4.6832374412       13.9915010766       14.2417210108
  C         0.1342630633        7.8741791566       15.5403417489
  C         0.0674672424       10.0790708687       16.8115984838
  H        -1.8182759557        8.4147841116        0.4370118143
  H        -2.5642226310       10.0023919758        0.7135327176
  C        -1.2869740758        9.7840322804       -1.1068829374
  H         5.0002850918       17.2932648913        0.3153821752
  C         5.4622393345       15.7560740981       -0.9629734949
  H        -2.2275359868       14.5094891261       10.4698992494
  H        -2.7149354283       14.3503199646       12.3154940904
  C        -3.6050224561       12.8876929038       11.0202076669
  H         5.0583819479       14.7784247472       13.6239747679
  H         4.2487050332       14.5519703588       15.0763965629
  C         5.9054274327       13.2823891823       14.8877592173
  N         0.5387968159        6.9913837803       14.5902342329
  C        -0.0970611398        7.2460401778       16.7407924235
  C        -0.2518285820        9.4047370931       17.9769688184
  H        -0.0728194943       11.1423797472       16.8210186001
  H        -2.0464267001        9.3745706650       -1.7534516067
  H        -0.3756267882        9.2901288351       -1.4874894715
  H        -1.0594848978       10.8291860833       -1.2260423316
  S         5.6951719741       14.1060363927       -1.3949935463
  C         5.5485568961       16.7619022923       -2.1110123320
  H        -3.2773319954       12.1601562127       10.3369601863
  H        -4.0980912570       12.4775888370       11.8558152501
  C        -4.7024684514       13.5936880208       10.3639823218
  H         6.3949207109       12.7673916365       14.0956779109
  H         5.5262713473       12.4947222337       15.5682673136
  C         6.6949800263       14.3718264325       15.5611827994
  S         0.4749892134        5.4658357809       15.1762196336
  N        -0.0975455287        5.8528265660       16.6303032830
  C        -0.3444057097        7.9224632955       17.9616706750
  H        -0.2602949800        9.9552674326       18.8884371199
  C         6.0089227653       14.7228520445       -3.0354263573
  N         5.9085279634       16.0688937680       -3.1779603583
  O         5.3723328586       18.0017649866       -1.9412632517
  H        -5.4536048004       14.0107972790       11.0706574696
  H        -4.2841747756       14.5480048166        9.9009388027
  C        -5.4718540345       12.7966013657        9.3044327737
  H         6.0781293202       14.8872375222       16.2724793054
  H         7.4200179043       13.8176331318       16.1441638507
  C         7.3535248080       15.2671059485       14.5842201271
  C        -0.6454276700        7.0985405261       19.1265734501
  S         6.2858812053       13.7795775693       -4.3971967082
  C         5.9591408617       16.7509077551       -4.4569394489
  H        -4.8075534577       12.6489462103        8.5108701125
  H        -5.7059566980       11.7708024252        9.5931697599
  C        -6.8127477645       13.4540260865        8.8726899607
  H         6.7115057277       15.7573226321       13.8918679838
  H         8.0028809474       14.6421442564       13.9302108072
  C         8.2959949584       16.2881206979       15.2538563509
  H        -0.3681345131        6.0339905646       19.0440430634
  C        -1.0916888261        7.4073772490       20.3156411114
  H         6.6255022891       16.2924344114       -5.1143702250
  H         6.2396411064       17.7952392094       -4.2726808519
  C         4.6041909919       17.0105602736       -5.1164476882
  H        -7.2849369176       12.7373384880        8.1637510559
  H        -6.5673579811       14.4114972567        8.4993589541
  C        -7.8022058034       13.5408005141       10.0336753988
  H         8.0214688246       16.5800116159       16.2542870212
  H         9.3051188009       15.9145228327       15.2312332496
  C         8.2088578612       17.6251874288       14.4528203523
  S        -1.5477418559        8.9785435870       20.9062447990
  C        -1.2408660881        6.2609043938       21.3213424073
  H         4.1565481199       16.0307995266       -5.2269832114
  H         4.5659425806       17.4131974254       -6.1165298761
  H         4.0352921072       17.7813424529       -4.6075542110
  H        -8.6742888050       14.0136366133        9.5521987936
  H        -8.0562992347       12.6444541276       10.5402462609
  H        -7.4934550556       14.2624061002       10.8088783031
  H         8.0316354258       17.3966240363       13.4093401270
  H         7.4726468059       18.2272627797       14.9071238535
  H         9.1819378923       18.2204091765       14.4896171729
  C        -1.9168465894        8.2036143697       22.4253440920
  N        -1.8123561730        6.8621815804       22.3847964563
  O        -0.8560160861        5.0800515704       21.1960275903
  S        -2.6091797913        9.0228306118       23.8737923907
  C        -1.9290746517        6.1046266162       23.6271852185
  H        -2.1009193931        5.0106754692       23.4118424995
  H        -2.8303359894        6.2998491828       24.1604313913
  C        -0.7364692207        6.2442556518       24.6100794333
  H        -1.0303785944        5.9062120207       25.5835575032
  H        -0.3715116416        7.2794577645       25.0066430802
  H         0.1326026806        5.6615442170       24.3356321542
