352
i =
  H        -3.6620052591       14.8410247672       16.5268649349
  C        -3.1767580955       13.8444591265       16.5965442208
  H        -3.9342721905       13.1240370433       16.8919305447
  C        -1.8876571712       13.6506632059       17.3748795530
  C        -2.8498850407       13.6215697835       15.0757988989
  C        -1.8290363159       13.9933621046       18.8657182974
  H        -1.3258264805       12.7136896694       17.2389307045
  H        -1.2741939748       14.4468524659       17.0297623643
  H        -2.1511278599       12.7509279806       14.9311283586
  H        -3.7100293229       13.4922533303       14.4882029813
  H        -2.3835436546       14.4696212844       14.7317539824
  C        -1.9643277079       12.8226576788       19.8003064091
  H        -2.6368204399       14.7457079944       19.0962390449
  H        -0.8889635662       14.5136726819       18.9874560764
  C        -2.1706292973       13.2666041245       21.2555754288
  H        -2.8370771865       12.2213428341       19.5298745155
  H        -1.1636988616       12.0902556039       19.5741687373
  C        -1.1102059029       12.7181450207       22.2182708396
  H        -3.1961558574       13.0278250524       21.5559601280
  H        -2.0994486134       14.3444295623       21.2980696454
  C         0.1191009261       13.5965320403       22.4380724205
  H        -1.6121153756       12.3774650957       23.1718133870
  H        -0.8836095530       11.7843840032       21.7520379065
  C         1.2491136390       13.0562389416       23.3006074226
  H         0.4736069507       14.0772804771       21.5069534264
  H        -0.3533187296       14.5157155454       22.8145303261
  C         1.6678167665       11.7735815221       22.6644746045
  C         0.9018158169       12.4293452495       24.6312242551
  C         2.5025259406       14.0099602390       23.3356755892
  C         1.5180060979       10.6661765420       23.4747362930
  C         2.0701200051       11.3843312892       21.3873105971
  C         0.9629428168       11.0813015488       24.7199978088
  C         0.4269969469       13.0861236495       25.7401771512
  H         2.6227253423       14.4561924627       22.3534014368
  H         2.3281875787       14.9460274969       23.9158254790
  C         3.7923282644       13.3235009543       23.8529114891
  S         1.9477547401        9.1862040051       22.7156833903
  C         2.3847586336       10.0291309651       21.2450926174
  H         2.1140913188       12.0881597477       20.5709795381
  C         0.4812667315       10.4761146277       25.8825311853
  H         0.3694150686       14.1606895504       25.6067313338
  C         0.0672849701       12.5243453569       26.8909743641
  H         4.1348519981       12.6463878320       23.0621254062
  H         3.6113801458       12.7609053900       24.7434323698
  C         4.8394733148       14.3658242685       24.2117961820
  C         2.8326806624        9.3670706463       20.0143141061
  C         0.0341926479       11.1669566238       26.9775118112
  H         0.5836951556        9.3669710379       25.8755143082
  C        -0.4500356756       12.9761547034       28.1112924432
  H         5.6127034801       13.8147373375       24.7820767768
  H         4.5511817587       15.2348470023       24.8658228680
  C         5.4276882450       14.9754211150       22.9114445314
  C         2.6741850676        8.0070766732       19.6500380807
  C         3.2795489710       10.1815675890       18.8677664851
  C        -0.4125393706       10.5109284703       28.2766277760
  C        -0.6305279235       11.9003270926       28.9297949090
  S        -0.6751953201       14.5284724551       28.8555032062
  H         6.0836361093       15.7853509422       23.1934098483
  H         4.6993488575       15.4118573327       22.2222565146
  C         6.3244027229       14.0320992009       22.0870680680
  N         2.2184753893        7.0322328711       20.5479282705
  C         2.8872716681        7.4471862328       18.3704376248
  C         3.4049266183        9.6778073018       17.5556211321
  H         3.4643729303       11.2647455481       18.9396757550
  C         0.6884922083        9.6592250117       28.9604627456
  C        -1.8036653047        9.7311537865       28.1498435596
  C        -0.9286707139       12.2952334983       30.1985784722
  C        -1.0967204285       13.6407541879       30.2763162310
  H         7.3467087481       14.3515425357       22.2077029794
  H         6.2052050580       13.0207376326       22.5197052380
  C         5.9550515549       13.9292726475       20.6608253097
  S         2.2295882365        5.4996821006       19.9233462407
  N         2.7812520022        6.0361353018       18.4243285053
  C         3.2898159099        8.2323223301       17.2511524858
  H         3.7690858933       10.3295394619       16.7990581380
  H         0.6572155763        8.6248029998       28.6228195955
  H         0.3636925853        9.6326824632       30.0184489789
  C         2.1256938828       10.2964857292       28.8816536649
  H        -1.6058226823        8.9946024424       27.3666533732
  H        -2.1178367185        9.1323723081       29.0245956516
  C        -2.9504209303       10.6332915372       27.7435234738
  H        -0.8704617031       11.4820872001       30.9356914437
  C        -1.5333849204       14.2815329363       31.5302071763
  H         5.6903307778       14.8241240866       20.1100956581
  H         5.0478513279       13.3604198683       20.6481402308
  C         7.1708486242       13.2787163360       19.9217824295
  C         3.4458122908        7.5589130441       15.9695995019
  H         2.7077338255        9.8461977662       28.0900048941
  H         2.1187056816       11.3571866607       28.7498467625
  C         2.8998028336       10.0453881431       30.1446877166
  H        -2.6259408968       11.0948076367       26.8492179401
  H        -3.1263711473       11.3333155096       28.4928052937
  C        -4.2338885606        9.8418476053       27.4590905792
  C        -1.5044771350       15.6459821456       31.8647491831
  C        -1.6759919445       13.4601501558       32.7378365198
  H         8.1062893710       13.6986500689       20.2915740843
  H         7.1643270688       12.1973734456       20.2097839642
  C         7.1291858522       13.3638749839       18.3933141519
  H         3.1842975598        6.5845606174       15.9304430979
  C         3.6808545468        8.0969840508       14.7082980584
  H         2.6428743830        9.0786474897       30.5776508957
  H         2.5093895903       10.8084332334       30.8079570156
  C         4.4350075228       10.1896782441       29.8911523805
  H        -4.0905576741        8.9854785046       26.8009224897
  H        -4.5765440568        9.3310176489       28.3723852663
  C        -5.3457576097       10.7321767813       26.9865971645
  N        -1.2526752409       16.6916046974       30.9923483785
  C        -1.8657161428       16.1378213081       33.1382816167
  C        -2.0359055014       13.8886541451       34.0577990636
  H        -1.6646260533       12.3913020955       32.5469043249
  H         6.1623999256       13.0223225602       18.0424519698
  H         7.1792549586       14.3431703384       18.0014451643
  H         7.8870956617       12.8114605133       17.9346138776
  S         3.9326028709        9.7524719553       14.2038471987
  C         3.7318113199        7.1453360940       13.6150567258
  H         4.6403793897       10.9182448193       29.1462736304
  H         4.8753148170       10.5714842399       30.8215331418
  C         5.0226145204        8.8151952498       29.5289057324
  H        -4.9868132663       11.6376930241       26.4260746595
  H        -6.0218071399       11.0681675903       27.7363777013
  C        -6.2653318113        9.8281118713       26.1483393584
  S        -1.4094290913       18.1018234236       31.7409180840
  N        -1.8708617898       17.5151100946       33.2202169252
  C        -2.2236278425       15.3672822292       34.3008647965
  H        -2.2483090008       13.0916654107       34.7522621673
  C         4.0308471989        9.1575847007       12.5913689878
  N         4.0544225771        7.8118507471       12.4998799532
  O         3.6839744769        5.9312688445       13.7094800547
  H         5.9362860668        8.8331956858       28.9048172784
  H         4.2700772360        8.2642369191       28.8979466427
  C         5.2396138281        8.1071536661       30.8706189212
  H        -5.5460470196        9.3352347664       25.4510915144
  H        -6.6912800967        9.0837700202       26.7301186131
  C        -7.3176825402       10.6516596975       25.3329646206
  C        -2.6134712241       16.0518172892       35.5398956508
  S         4.2916765999       10.2169820401       11.2421709912
  C         4.2147116886        7.0915813357       11.2408391816
  H         6.2291832217        8.4719054433       31.2992711745
  H         4.4676084407        8.3179954037       31.5791990930
  C         5.4196281525        6.6456767587       30.7702762393
  H        -6.8462376238       11.0341277343       24.3974942281
  H        -7.5570386028       11.6367704500       25.7968733433
  C        -8.6124912874        9.9067593971       25.0146854223
  H        -2.3009220658       17.0651408941       35.5869685797
  C        -3.2146435981       15.5883523407       36.6771316718
  H         5.0275667275        7.4860491195       10.6231766155
  H         4.4906017244        6.0118549817       11.3320319365
  C         2.8261459074        6.9360104756       10.4745804973
  H         5.5078004382        6.2523738948       29.7963109307
  H         4.5002801200        6.2134444006       31.0965963753
  C         6.5303412492        6.1379509980       31.6551756301
  H        -9.1397341307       10.5024923621       24.2711107996
  H        -8.3353639666        9.0331970488       24.4604439078
  C        -9.6541985515        9.8698476742       26.1623821783
  S        -3.6549210623       13.9856017152       37.1858186497
  C        -3.4267397838       16.5455410795       37.7678654701
  H         2.7320293629        5.9264746124       10.0658478250
  H         2.0337202554        6.9986201289       11.2411663112
  H         2.5639370984        7.6525835793        9.7192689231
  H         6.7001831638        5.0982791948       31.4580493678
  H         6.1467149946        6.2285348445       32.6886728401
  H         7.4539152867        6.7729678332       31.4824057806
  H        -9.9036557267       10.9209761863       26.4587357910
  H        -9.2014837278        9.3070946815       26.9739748287
  H       -10.6001894870        9.4122545625       25.9388388706
  C        -3.8322461965       14.6165120632       38.8623985289
  N        -3.9693521316       15.8982781540       38.8372533888
  O        -3.2644971342       17.7336644083       37.6776529683
  S        -4.4676620887       13.7099217654       40.1715254104
  C        -4.3076427824       16.6230387501       40.0125082398
  H        -4.6656088081       17.6209893231       39.8679155865
  H        -5.0911397063       16.0910308506       40.4826185125
  C        -3.1622381548       16.7370164088       40.9914076172
  H        -3.4878554180       16.4164283222       41.9723120788
  H        -2.2893831987       16.1746165729       40.6637602057
  H        -2.9068903176       17.7676335972       41.1875051593
  H         7.7457532932       11.6009131740        3.4944906995
  C         8.0911242764       10.5799686835        3.4487430420
  H         7.2913809388        9.9145978499        3.3643196892
  C         8.9045514523       10.4087755517        4.7102231368
  C         8.7892752742       10.4244404057        2.0793758709
  C         7.9524891116       10.7636625669        5.9089312721
  H         9.2790706746        9.4105369912        4.8155746005
  H         9.7836465438       11.0796703103        4.6090747260
  H         7.9961444474       10.4287182367        1.2904443801
  H         9.3528055434        9.4825496766        2.1142399180
  H         9.4900483732       11.2907243258        1.8858231054
  C         7.0979213457        9.5508073097        6.3672643913
  H         8.4768210042       11.0738819197        6.7631525830
  H         7.2939889956       11.5936607186        5.6023211373
  C         6.3915901251        9.6235715120        7.7734423106
  H         7.6445981339        8.5924735100        6.2817407677
  H         6.3260197269        9.4788268337        5.6571847116
  C         5.1113668676       10.4832109398        7.5990179863
  H         7.0746258284       10.1151347100        8.5293435609
  H         6.2915958111        8.7043228040        8.3654188819
  C         3.8876241496        9.7800460741        7.0481094001
  H         4.9181104770       11.0151499893        8.5093950941
  H         5.4348323771       11.2281182533        6.8422993093
  C         2.6685460316       10.7596743667        6.7742161585
  H         3.5918331288        9.1156406854        7.8036395236
  H         4.0681814631        9.1350969270        6.1937956769
  C         3.1497067504       12.1152634797        6.0939111655
  C         2.3418581769       11.4950789313        8.0375054683
  C         1.5367567770       10.0348984702        6.0163955542
  C         2.9296730322       13.2412817682        6.8364998606
  C         3.6952446054       12.4170450467        4.8310242711
  C         2.4521425533       12.8833525097        8.1055270301
  C         1.8599461417       10.9554645678        9.2180173553
  H         1.9331502772        9.3964941410        5.2590662071
  H         1.1212028478        9.4074673807        6.7216698276
  C         0.3582866317       10.9401236547        5.5617477524
  S         3.4502476138       14.6908676216        6.1007765813
  C         3.9144363869       13.7732694447        4.6924980948
  H         3.9021396477       11.7412976292        4.0744571035
  C         2.1388868242       13.5536226461        9.2793303527
  H         1.9166813821        9.8379456301        9.2220633366
  C         1.5136765128       11.6381159060       10.3368896214
  H         0.7208073531       11.8603793798        5.1018288076
  H        -0.2152065395       11.2308230554        6.4297214411
  C        -0.6413647562       10.3069298055        4.6441125606
  C         4.4187819503       14.4328098872        3.4235220191
  C         1.5889695874       12.9801643813       10.4406098948
  H         2.1251437873       14.6143373342        9.3347612992
  C         1.0608040140       11.2196981459       11.5530198421
  H        -1.5656585853       10.8823731241        4.6660616405
  H        -0.9818354423        9.3115574095        5.0341142548
  C        -0.0449834030       10.0723876442        3.2824343767
  C         4.5147717052       15.7969414923        3.1797642216
  C         4.5304304487       13.5757822730        2.2475334713
  C         1.1693090084       13.6661497269       11.6615359875
  C         0.8850908220       12.3250063693       12.3584048066
  S         0.7611183617        9.6529082088       12.2658740740
  H         0.8559868021        9.4538002456        3.3392137277
  H         0.3250156896       10.9810613218        2.8438963879
  C        -1.1718199815        9.5740922603        2.4485731415
  N         4.3060478622       16.7602956013        4.1923935846
  C         4.6867632322       16.3631567874        1.9426393477
  C         4.7987690058       14.0870024070        0.9948044709
  H         4.4623257565       12.5413490365        2.3412038781
  C        -0.1616923696       14.3739121535       11.5476672640
  C         2.2848304667       14.4907989608       12.4211109920
  C         0.5461857548       11.9218900895       13.6589702426
  C         0.4912973572       10.5111604680       13.7835792990
  H        -1.5539681321        8.6164468156        2.7928164212
  H        -1.8449483288       10.4006999364        2.4532574695
  C        -0.7063884657        9.2787973092        1.0353797326
  S         4.2034845076       18.2252954877        3.4899781221
  N         4.5802741307       17.7281858655        1.9931204581
  C         5.0011002140       15.5923439102        0.8180642052
  H         5.0624604596       13.5007388027        0.1154831864
  H        -0.0527427406       15.1401287641       10.8181039433
  H        -0.3812607052       14.8345904871       12.4622418946
  C        -1.3379468387       13.5137918710       11.1236118875
  H         2.6326729886       15.3735803845       11.9713652506
  H         1.8271627154       14.8919256601       13.2911623128
  C         3.5445739735       13.6973840472       12.7808027415
  H         0.3333189128       12.6331749292       14.4477297887
  C         0.2284414006        9.7897878094       15.1108190191
  H        -1.1622336762        8.3859938670        0.6602809398
  H         0.3146762453        9.0505526449        0.9506976006
  C        -1.0626075798       10.3518725378        0.0822919395
  C         5.3440350197       16.2613027084       -0.3488987840
  H        -0.9900885526       13.1236882128       10.1905798970
  H        -1.6288076013       12.7998916399       11.8922608100
  C        -2.6372902248       14.3264916909       10.9970173746
  H         4.1305430083       13.2485615438       11.8902417729
  H         3.2897470598       12.8760153360       13.4934449874
  C         4.4950979218       14.6122751333       13.5808301665
  C         0.2133097892        8.3733547196       15.2414177744
  C         0.1812585183       10.5224903608       16.3967549484
  H        -2.1014440608       10.5456149264        0.2931139205
  H        -0.4250675557       11.2729429211        0.3390180699
  C        -0.8336110657        9.9730302421       -1.3850146791
  H         5.3034468160       17.3373821919       -0.2520498168
  C         5.5988891488       15.8590676441       -1.6442561433
  H        -2.4349411554       15.1157104588       10.3396334341
  H        -2.9781913523       14.8257770818       11.8986478677
  C        -3.7701826866       13.3605232721       10.5559228577
  H         5.0676111234       15.2491637159       12.8679931967
  H         3.9313485847       15.2430292438       14.2357484379
  C         5.4599474996       13.8163796648       14.4742350993
  N         0.3984414368        7.4468450646       14.2142136258
  C        -0.0020775493        7.7021835375       16.4410230897
  C        -0.1361409943        9.8833170246       17.6130189008
  H         0.3011623068       11.5774043611       16.4533965921
  H        -1.1435985581       10.8472432858       -2.0253112025
  H        -1.3253466788        9.1102457769       -1.7586382442
  H         0.2785822693        9.9074023163       -1.5488171279
  S         5.8413247177       14.2401374001       -2.2311148003
  C         5.6810230518       16.9550773185       -2.7315691482
  H        -3.4649075126       12.6796286363        9.7817321052
  H        -3.9631013146       12.6125086580       11.3383068636
  C        -5.0918620764       13.9676719855       10.2487064635
  H         5.3435005761       12.8636849755       14.0529988632
  H         5.2144700441       13.8887488517       15.5567513381
  C         6.9157255345       14.3297636903       14.3519999462
  S         0.2087653793        5.9229851622       14.7362852977
  N         0.0536734212        6.3010066517       16.2896486752
  C        -0.1850304851        8.4162191815       17.6846386353
  H        -0.4291113068       10.5763810162       18.4592141687
  C         6.1350371868       14.9984497467       -3.7916463808
  N         6.0840930572       16.3493606363       -3.8878606630
  O         5.4679958132       18.1733765650       -2.5488821279
  H        -5.7929135144       13.6279024493       11.0597408085
  H        -4.9235463518       15.0454058298       10.3821542070
  C        -5.5933032246       13.4327022844        8.9887273991
  H         7.5127911052       13.5188325811       14.7525674921
  H         7.2796238795       14.4371397507       13.3068951251
  C         7.0789389643       15.6718898278       15.1515778459
  C        -0.5290760300        7.6306433469       18.8797323115
  S         6.4487039675       14.0303256624       -5.2397414509
  C         6.0237473474       17.1362813815       -5.1578528788
  H        -4.7661206777       13.3328228458        8.3285753127
  H        -5.8027176058       12.4188149511        9.1255898718
  C        -6.7407634872       14.1778034429        8.3796108536
  H         7.5350286378       15.5226969704       16.1771713881
  H         6.1232134487       15.9924965861       15.4873980641
  C         7.9956858018       16.6932890898       14.5180145543
  H        -0.3161687027        6.5501897874       18.7512006203
  C        -1.1354622404        7.9438811280       20.0513094248
  H         6.7314710591       16.8028469119       -5.8580055662
  H         6.3333271821       18.1323212301       -4.9459277928
  C         4.6221042335       17.1557427505       -5.7297034431
  H        -7.1165019893       13.6147118304        7.6100724769
  H        -6.2705363824       15.0999687190        8.0595727212
  C        -7.8864919307       14.3808687989        9.4000106563
  H         8.2293116696       17.4670679175       15.2719576473
  H         8.9778640979       16.2054940017       14.4062981943
  C         7.5322494753       17.3188520305       13.1944116197
  S        -1.8356623813        9.4099036090       20.5762481874
  C        -1.2045479853        6.8424761711       21.0581653650
  H         4.3450010820       16.0148852488       -6.0236423067
  H         4.5179550182       17.7137460133       -6.6662990828
  H         3.8256505135       17.6220509499       -5.2062098854
  H        -7.6875522296       15.0828461770       10.1417056692
  H        -8.8085204345       14.6565042300        8.9265796841
  H        -8.0434766266       13.4587013982        9.9016638759
  H         7.2501915309       18.3516695720       13.3238854644
  H         8.4474825786       17.3642620492       12.5738468052
  H         6.7136081926       16.8737268773       12.7055296262
  C        -1.8266838746        8.7205436760       22.1892454148
  N        -1.6825855047        7.3538187556       22.2319977831
  O        -0.7756701129        5.7008001071       20.8898301462
  S        -2.4749301630        9.5635583680       23.6128940996
  C        -1.8566527904        6.5141867995       23.3690461873
  H        -2.1825481753        5.5359212260       22.9378617430
  H        -2.7940213380        6.8931131796       23.8960095620
  C        -0.5760398582        6.5315709265       24.2307105424
  H        -0.3828355355        7.4198094539       24.7320984341
  H         0.2478563536        6.1931448653       23.6066458776
  H        -0.7594417019        5.7881601593       25.0513791872
