352
i =
  H        -3.3413601914       14.6607301364       16.4070001874
  C        -3.1084513001       13.5869272525       16.1771138456
  H        -4.0151856064       13.0204250504       16.1483114676
  C        -2.2401828958       13.1839295590       17.3846682737
  C        -2.4821486423       13.4018918052       14.7584781037
  C        -2.9121901623       13.2066245562       18.7697316199
  H        -1.9458714164       12.1431175426       17.3421816652
  H        -1.4006253557       13.8122611669       17.2170736121
  H        -1.3985048263       13.5854322514       14.7859105646
  H        -2.6369065678       12.4232641074       14.3219702158
  H        -2.9104904666       14.1135961844       14.0596839441
  C        -1.8185140770       13.1106505014       19.8622904552
  H        -3.6466397805       12.4378244415       18.9164007731
  H        -3.4464270866       14.1370980820       18.9390008408
  C        -2.4081182386       13.1166477139       21.2660175015
  H        -1.2755313898       12.1517861849       19.7534336150
  H        -1.0823021244       13.8598343223       19.5967806552
  C        -1.3941944103       12.6019006351       22.3216537795
  H        -3.3525640046       12.5775991200       21.3616126844
  H        -2.7050819555       14.1530563973       21.5897050768
  C        -0.1024486225       13.3956737028       22.4734461121
  H        -1.9295923710       12.4875508208       23.2896621418
  H        -1.2101993986       11.5382540806       22.0723769160
  C         0.9965625955       12.7288733060       23.2088829744
  H         0.1861254292       13.7200294614       21.4967949715
  H        -0.3121592662       14.3791523075       23.0112780674
  C         1.3922617284       11.3783004602       22.5317006040
  C         0.5345229461       12.0362747106       24.5133052781
  C         2.2213070478       13.7442960114       23.5907768963
  C         1.1636699357       10.2999718784       23.3005313350
  C         1.7428174360       11.0605678655       21.2124847531
  C         0.6552936812       10.6428009510       24.5612052699
  C         0.0717497886       12.6429346096       25.6380593438
  H         2.2216136520       14.4560817577       22.8200197144
  H         2.0745538814       14.3462747087       24.5202550949
  C         3.6382236015       13.0632045151       23.5709076809
  S         1.4926366126        8.7746103276       22.5173958989
  C         1.8425928193        9.6845353974       21.0592571083
  H         1.9213351777       11.7839785168       20.4394307485
  C         0.3372781389        9.9699513144       25.7153890063
  H        -0.0941032625       13.7138206581       25.7693034437
  C        -0.1512377127       11.9570524924       26.8028616590
  H         3.7425169178       12.5266256120       22.5852852812
  H         3.7540558176       12.3678609412       24.3211770508
  C         4.6672129032       14.1415639283       23.6287828635
  C         2.2865225680        9.0202175464       19.7912382348
  C        -0.0435069591       10.5902533099       26.8870717707
  H         0.5648931272        8.9754843816       25.8060416143
  C        -0.6812964826       12.2456904789       28.1018634958
  H         5.5145477038       13.7819657353       24.2670234988
  H         4.3150426052       15.0223715419       24.2135752151
  C         5.2087622070       14.4716905338       22.2416667136
  C         2.4030828356        7.5897081083       19.6215499591
  C         2.7716553179        9.7942891910       18.5920175981
  C        -0.4996869298        9.8821438011       28.1476476704
  C        -0.8321898034       11.0913194451       28.9079767928
  S        -1.0444943857       13.7070753975       28.9107572406
  H         5.3618498358       15.5310439406       22.2871235546
  H         4.4089923940       14.3232383542       21.5069844585
  C         6.5143562267       13.7412968956       21.9593011709
  N         2.0779032567        6.6168107564       20.6102609597
  C         2.7685518569        6.9610663638       18.4404642307
  C         3.2071434966        9.1813092291       17.4180817707
  H         2.7433571599       10.8327540054       18.5726447241
  C         0.6265966636        9.1117225945       28.7245001742
  C        -1.8717760098        9.1402202648       27.8760581698
  C        -1.3303038780       11.4529458022       30.1729545767
  C        -1.4365768628       12.7842534205       30.3108769805
  H         7.1263473008       14.5389349786       21.5554345439
  H         7.0477016502       13.4524855850       22.8179727707
  C         6.3749450343       12.5783122594       21.0092224395
  S         2.1107239359        5.1624115903       19.8901899470
  N         2.6247282155        5.6111511003       18.4429978551
  C         3.1294757311        7.6791821902       17.2739722869
  H         3.5653595361        9.7559576906       16.6207264854
  H         0.8018162543        8.2295473188       28.1025327238
  H         0.1385306564        8.6010457677       29.5445270777
  C         1.8465120930        9.9030551040       29.1287976485
  H        -1.6183804443        8.3051026574       27.2219321277
  H        -2.2069869563        8.8555481264       28.8936279923
  C        -3.0099613127        9.9998153245       27.3475826862
  H        -1.5165537748       10.6666296621       30.8811450938
  C        -1.8711324191       13.4894152063       31.5419181400
  H         5.4813855664       12.0566853485       21.2962508486
  H         7.1704209489       11.8925318520       21.0883823338
  C         6.2100773980       13.0213607584       19.6070171935
  C         3.4452038553        6.9145535407       16.0677091134
  H         2.6392649795        9.8371480168       28.3192701807
  H         1.7482506809       10.9615985870       29.0648503096
  C         2.4629752226        9.6974952003       30.5425173397
  H        -2.6688984325       10.4042605533       26.3950999887
  H        -3.3030045558       10.8607422730       27.9888106300
  C        -4.3341118159        9.2574751956       27.1158039822
  C        -1.8391031992       14.9070040926       31.7291198567
  C        -2.0895355364       12.6706535934       32.7719061874
  H         5.3405617227       12.4105489436       19.2997821198
  H         5.9474319587       14.0646686693       19.4775101746
  C         7.4749976319       12.8336179444       18.8497240349
  H         3.3900588494        5.8752015510       16.1872567012
  C         3.6251071869        7.3790272514       14.7823121412
  H         2.1301847356        8.7915359290       31.0262659472
  H         2.0149869906       10.4694532837       31.1700226119
  C         3.9924242994        9.9159582713       30.6653954185
  H        -4.2295178792        8.6491882303       26.2330076475
  H        -4.5493882474        8.7063585913       28.0158905472
  C        -5.4427798967       10.3536542816       27.0144014735
  N        -1.6316541167       15.8649253189       30.7135125716
  C        -2.1253343651       15.5026550238       32.9339187087
  C        -2.3481841901       13.2453675457       33.9465865149
  H        -2.1625429320       11.5798361133       32.7339829990
  H         7.2542279210       12.9976036527       17.7927593189
  H         8.1822013693       13.6311430727       19.0799951620
  H         7.7881801905       11.7696091540       18.9626286306
  S         3.8036511667        9.0047548034       14.2092771965
  C         3.6315013044        6.3178144486       13.7181748072
  H         4.2712630771       10.8767197281       30.3561825508
  H         4.2124834827        9.9108837677       31.7549583236
  C         4.9594296652        8.8467028722       30.0512317515
  H        -5.1536589453       11.1260039081       26.2906363393
  H        -5.6073808570       10.7739797363       28.0442089394
  C        -6.6769008606        9.7152579548       26.4705576275
  S        -1.4760807785       17.3289388378       31.4188857468
  N        -1.9702859294       16.9249403463       32.8849111761
  C        -2.3734563397       14.7135205443       34.0731888727
  H        -2.4087557182       12.7510806056       34.8890685951
  C         3.9346254348        8.2925342438       12.6272848192
  N         3.8391696747        6.9485058385       12.5283028390
  O         3.4777924379        5.1123912889       13.9220319849
  H         5.8334163521        9.3131119931       29.8416730927
  H         4.4215349122        8.4424794067       29.1822089307
  C         5.2447822986        7.6426246406       30.9858551647
  H        -6.4943798572        8.6366115825       26.3746466370
  H        -7.4675976207        9.8521219036       27.2302009385
  C        -7.2446814336       10.3648533442       25.1876204849
  C        -2.6898089208       15.4608291280       35.2662538156
  S         4.3891636042        9.2403666805       11.1925073872
  C         3.9764120369        6.0781578116       11.3457016257
  H         5.8562242817        7.9215326083       31.8610773666
  H         4.3460709141        7.2613536099       31.3978076742
  C         5.9684967744        6.5035140858       30.2182732443
  H        -6.5293081997       10.3974549570       24.3811744896
  H        -7.4544810914       11.3426746253       25.4780865553
  C        -8.4657003639        9.6632365160       24.6571059714
  H        -2.3539104554       16.4883452302       35.2688891772
  C        -3.3678877507       15.1517077030       36.4308449810
  H         4.5731362849        6.5609525883       10.5701936850
  H         4.4691597321        5.1685059456       11.5910104703
  C         2.6316270203        5.7861773059       10.6896452200
  H         6.7992960001        7.0382410392       29.6727556516
  H         5.1880172347        6.0702277864       29.6108272233
  C         6.6225343011        5.4498733180       31.2050302905
  H        -8.7805856806       10.1263575893       23.6987862498
  H        -8.3195214964        8.5978286075       24.4771875470
  C        -9.5978335633        9.9194465933       25.5821752618
  S        -4.1956102665       13.6961370854       36.8623460642
  C        -3.4247968295       16.2131172748       37.4325241485
  H         2.5281178650        4.7533278845       10.4632184091
  H         1.7383929455        5.8326212867       11.3073048887
  H         2.5469658519        6.3798406823        9.8133808061
  H         6.8976228602        4.5521824222       30.6251857260
  H         5.9550838254        5.1309329167       31.9898719290
  H         7.5022854497        5.8547101008       31.6658688643
  H       -10.5651402580        9.9462870882       25.1238023578
  H        -9.4717872623       10.8935762634       26.0680328810
  H        -9.6762477412        9.1576418956       26.3635024983
  C        -4.6795836398       14.4886011945       38.3411874332
  N        -4.2295541345       15.7885738650       38.4388415000
  O        -2.9050831108       17.3345514322       37.3057508913
  S        -5.6621345017       13.8782707166       39.7141799736
  C        -4.3625162748       16.6127855785       39.6782658658
  H        -4.4751711527       17.6494424250       39.3323649007
  H        -5.2844547817       16.3561043790       40.1963313591
  C        -3.1990348922       16.5131557185       40.6814457287
  H        -2.4410482716       15.7671677538       40.3542788932
  H        -2.7501618312       17.5210298755       40.8886703486
  H        -3.6796343894       16.1640277931       41.6386754698
  H         7.6848319981       11.3529585545        3.5679214608
  C         7.9279664071       10.3205328451        3.4487227903
  H         7.0608873081        9.6647487761        3.5141538174
  C         8.8981649390       10.2054630647        4.6779863525
  C         8.7828592358       10.0428881765        2.1644970576
  C         8.2442276074       10.3117300167        6.0075128166
  H         9.4387806186        9.2576385566        4.6365286395
  H         9.6903430317       10.9208473820        4.7478579688
  H         9.4168761601        9.2398325852        2.3990835103
  H         9.5785624307       10.7826414081        1.9367169962
  H         8.2114746294        9.9471243421        1.2854495580
  C         7.3235772601        9.1159038930        6.4110840799
  H         8.9904573806       10.4659482700        6.7003533743
  H         7.7288858965       11.2588125185        6.0830708962
  C         6.4319171114        9.3808413124        7.6986137105
  H         7.9200629014        8.2546550272        6.5584944641
  H         6.6115732182        8.8324385862        5.6730159097
  C         5.1657085142       10.2582602837        7.4891463049
  H         6.9987024039        9.8020858967        8.5169960331
  H         6.1634877171        8.4281765439        8.1113819018
  C         4.0121066144        9.3859493160        6.8858281001
  H         4.8250186599       10.6792188645        8.4844391279
  H         5.3826475082       11.1329423014        6.8851514036
  C         2.7579555850       10.2396573993        6.5616600023
  H         3.7205601955        8.4723378519        7.3780861474
  H         4.3022508128        8.9771635126        5.9407331742
  C         3.0341632468       11.6546456344        5.9155655444
  C         2.2271474571       10.9238895441        7.8097380954
  C         1.7286429025        9.3253892955        5.9041973475
  C         2.7027215734       12.7275616529        6.7184607175
  C         3.5398937036       12.0278542635        4.6797386143
  C         2.2965269695       12.2435836875        7.9613148077
  C         1.8263760819       10.2696562064        8.9935699841
  H         2.1821268782        8.6630611346        5.1776556265
  H         1.2688511803        8.6484014212        6.6091938615
  C         0.6587021565       10.2044134081        5.1236575696
  S         2.9797734821       14.2513333391        6.0813165864
  C         3.6927561786       13.4239694017        4.6663289839
  H         3.6808134414       11.2284666445        3.9694904816
  C         2.0084766995       12.8742496261        9.1104036683
  H         1.8169016542        9.2001446071        9.0084228875
  C         1.3933422443       10.8724538312       10.1360992709
  H         1.1325142865       10.7499357598        4.3457252616
  H         0.2834346591       11.0048797108        5.8233283492
  C        -0.5019124098        9.4934756253        4.3578008643
  C         4.0167993779       14.2145454332        3.4616333141
  C         1.4744902549       12.2505642845       10.2482262615
  H         1.9327576408       13.9136575324        9.1233642601
  C         0.9593532995       10.4925669003       11.3891253231
  H        -1.2840858324        9.1849538710        5.0257267381
  H        -0.1874426997        8.6209910851        3.8379953513
  C        -1.2220743229       10.4775672385        3.4817870997
  C         3.9372691353       15.6155735932        3.3836674149
  C         4.4805285988       13.5241980565        2.2519217728
  C         1.0591377101       12.8980002492       11.5408059686
  C         0.7396407589       11.6067975806       12.2070225975
  S         0.6855598309        8.9909870898       12.1813059372
  H        -0.6486315221       11.2626174793        2.9766477493
  H        -1.7438968817       11.0607660810        4.1651641468
  C        -2.2526134587        9.8358759955        2.5896429400
  N         3.6128010612       16.5111994215        4.4559870896
  C         4.2584675688       16.3013164186        2.1629076285
  C         4.6297257339       14.1791980588        1.0501389131
  H         4.7059272154       12.4895409632        2.3356327554
  C        -0.2557884685       13.6814829108       11.4839722091
  C         2.2574154985       13.5784534996       12.2441464268
  C         0.3746450505       11.2121846363       13.4760501089
  C         0.3027113030        9.8354331491       13.6688565465
  H        -2.8371206323        9.3145478531        3.2505545748
  H        -2.8905612773       10.6498196111        2.2049339548
  C        -1.5891591188        8.9838696898        1.5052133208
  S         3.6580181997       18.0095459178        3.7814847366
  N         4.1857790563       17.6869464046        2.2160318960
  C         4.5370105801       15.6354533334        0.9300209212
  H         4.9810006066       13.6180684756        0.1785001949
  H         0.1008306166       14.6423109524       11.0991879939
  H        -0.7018878285       13.9297952329       12.5453088367
  C        -1.3090261149       13.1247264094       10.5896383391
  H         2.5734020664       14.3898618289       11.6289083565
  H         1.9585715886       14.0510625284       13.2070981232
  C         3.5910796711       12.6814956117       12.3825612581
  H         0.1568088536       12.0015919020       14.1657090100
  C         0.0042135349        9.1308041093       14.9040184750
  H        -2.3327610554        8.3931514223        1.0220525240
  H        -0.9324900116        8.3538378969        2.0999748260
  C        -0.8525149986        9.8479651760        0.4993236104
  C         4.8510778514       16.3891903850       -0.2748859807
  H        -0.8927845254       13.1246738167        9.5227365301
  H        -1.4892289319       12.0562670930       10.8085842401
  C        -2.5522426607       13.9291312692       10.5907569655
  H         3.8298973922       12.4199091544       11.3241393333
  H         3.5863595751       11.7317535988       12.9534505477
  C         4.7259093393       13.4668700090       12.9776484010
  C        -0.0070276285        7.7438730666       15.0909939919
  C        -0.3098074625        9.9581833602       16.1282416689
  H        -1.0962195292       10.8601756066        0.8312812406
  H         0.2013331555        9.8160519715        0.6633234035
  C        -1.1327664162        9.6544843136       -0.9955890377
  H         4.7123006183       17.4884665516       -0.1740241646
  C         5.2393551472       16.0127754935       -1.5471287598
  H        -2.5105947315       14.8232841200        9.9615214340
  H        -2.8826737851       14.3926861312       11.5444993009
  C        -3.7434926558       13.0797919286       10.1661064662
  H         5.4588913086       13.3964530302       12.2594726553
  H         4.4262284764       14.4390484428       13.0931899772
  C         5.2090864563       12.7943535948       14.3207798416
  N         0.1066672039        6.7412933139       14.1429673156
  C        -0.2284436983        7.2355016776       16.3463484794
  C        -0.4146286537        9.4621931053       17.3750458880
  H        -0.4549185021       11.0038789305       15.9607046695
  H        -1.0726382161       10.5603691015       -1.6083465693
  H        -2.1155050081        9.2658434653       -1.2066573157
  H        -0.4183487508        9.0034785924       -1.4654022594
  S         5.5969201779       14.4381502927       -2.0816964779
  C         5.2917607732       17.0637900286       -2.5407766396
  H        -3.4154210939       12.6792376011        9.2148095492
  H        -4.0117766072       12.3419238072       10.9180496486
  C        -4.9423461620       13.8546695639        9.8612683577
  H         5.3488703856       11.6697545399       14.2888964817
  H         4.5501403504       12.9677880579       15.1402824256
  C         6.5198785933       13.3790731680       14.8847426157
  S         0.0966015927        5.2981762394       14.8634379596
  N        -0.1901583417        5.8219041490       16.3800250443
  C        -0.4535970095        8.0207201598       17.5179414564
  H        -0.4801903010       10.1481482739       18.2480315331
  C         5.5958949097       15.1090500812       -3.6830047061
  N         5.4699739693       16.4817117630       -3.7322109165
  O         4.9906811775       18.2219114299       -2.2643099261
  H        -5.3519476363       14.2505331147       10.7501218118
  H        -4.7837788528       14.7207212062        9.2741390177
  C        -6.0775927884       13.0286800594        9.2123323908
  H         6.7738588891       12.7243945003       15.6994820798
  H         7.3554337708       13.2930133516       14.1269877107
  C         6.2572750124       14.7972801868       15.4156792432
  C        -0.7091427164        7.2910245573       18.6744802525
  S         5.8678922966       14.1228318588       -5.1143903564
  C         5.2405155387       17.2649106268       -4.9548550213
  H        -5.6859954991       12.9184071899        8.2471937844
  H        -6.2866183419       12.1641960911        9.8336334981
  C        -7.3375658258       13.8924078752        8.9605302776
  H         6.0994039056       14.7636780021       16.4792319435
  H         5.2441766928       15.1917101569       15.0930748537
  C         7.4256412241       15.8223342897       15.1164743817
  H        -0.3510176512        6.2929807118       18.7419798054
  C        -1.2611037892        7.5865554114       19.9708238145
  H         5.8820390641       16.9102989259       -5.7584593052
  H         5.5241185112       18.2597610735       -4.7316788661
  C         3.8052973424       17.3308459282       -5.3923309897
  H        -7.6051923770       13.8330341388        7.9032826324
  H        -7.0759716408       14.9415424212        9.1468475648
  C        -8.4159527586       13.5753694791        9.9139318281
  H         7.2926630076       16.6218750840       15.8713455476
  H         8.2594318046       15.2908281410       15.4915131906
  C         7.4469501039       16.2615880823       13.5902062232
  S        -1.9875438626        9.0506601070       20.4875583607
  C        -1.3402037508        6.5137389559       20.9525875188
  H         3.6199279494       18.3499489165       -5.7769075636
  H         3.1786011934       17.0966961992       -4.5302858313
  H         3.4727972566       16.6959607627       -6.2033564479
  H        -9.1259992818       14.3978733635       10.2107027075
  H        -8.9850251075       12.7208936000        9.5365374402
  H        -8.0658612032       13.1376497177       10.9088766348
  H         6.6451435861       15.8891360874       13.0321441325
  H         7.3260414710       17.2567122717       13.4184016719
  H         8.4414676356       16.0596388867       13.1900331825
  C        -2.3516400630        8.2876685053       22.0560236929
  N        -1.9128464120        6.9800496616       22.0955396932
  O        -0.9391788496        5.3888719756       20.7861572207
  S        -3.1477037650        9.0324837658       23.4755090396
  C        -2.0238001148        6.1160479961       23.2524014936
  H        -2.1055238385        5.0757839654       22.9178522402
  H        -2.8965795568        6.4570447327       23.8378765618
  C        -0.8251788924        6.1715846281       24.2167480471
  H         0.0564533590        6.2176811532       23.6658059909
  H        -0.6931777608        5.1933150173       24.6470507962
  H        -0.7513051780        7.1013944234       24.8428611273
