352
i =
  H        -3.4965680733       14.7694773250       16.6176718867
  C        -2.8182429217       14.0327054713       16.3405603649
  H        -3.2603970262       13.0537557127       16.1881335852
  C        -1.6808159902       13.8413162160       17.3429935431
  C        -2.2602087445       14.4691518768       15.0088023801
  C        -2.0448998633       14.2497054840       18.7943009274
  H        -1.2368129418       12.8234203402       17.2822044294
  H        -0.7725030034       14.4420439195       17.0452556766
  H        -1.7939482134       15.4097407172       15.1185212178
  H        -1.5473038848       13.8711345802       14.4280644925
  H        -3.1280314736       14.7100385429       14.4093038932
  C        -2.0093202772       13.0400960113       19.6342906368
  H        -3.1394487501       14.5901005070       18.7814822427
  H        -1.4212922900       15.0317278835       19.2496086477
  C        -2.3144863018       13.3094314518       21.1865222805
  H        -2.7291228915       12.4167333174       19.1061717446
  H        -1.0318827886       12.6387641518       19.5013114792
  C        -1.0927906859       12.7690148641       22.0441189365
  H        -3.1861725559       12.7796440305       21.5395433138
  H        -2.5678065517       14.3732461143       21.3606843322
  C         0.2262674507       13.6226662148       22.0959622860
  H        -1.4678041142       12.6227165871       23.1036517123
  H        -0.9239990134       11.7805833446       21.6281419885
  C         1.4172291786       12.8950972213       22.8185277879
  H         0.5083696568       13.9933510025       21.1013907370
  H        -0.0484152288       14.5437617568       22.5804846927
  C         1.7749786040       11.5477216125       22.2008959765
  C         1.0048643044       12.1131257565       24.1215382649
  C         2.6266151384       13.8301518180       23.0765172001
  C         1.5903660396       10.4292079281       23.0209890540
  C         2.1078782490       11.1517749568       20.9001572370
  C         1.1367009342       10.7764177045       24.3008615592
  C         0.5578736388       12.7420150038       25.2798023382
  H         2.8016339240       14.2739127298       22.0335122854
  H         2.3014651293       14.6767383943       23.7018488796
  C         3.9637344006       13.2501805865       23.6265892548
  S         2.0845899581        8.9360616821       22.3246061669
  C         2.3549566297        9.8022307884       20.8978017967
  H         2.2495916838       11.8327939997       20.0751093704
  C         0.8091943045       10.1003786628       25.4070886087
  H         0.6095233356       13.8279033063       25.2725708516
  C         0.2926600783       12.1520871120       26.4910862724
  H         4.3726825722       12.5202849920       22.8913663116
  H         3.6634866292       12.7773203295       24.5335978818
  C         5.0528783305       14.2230019401       23.9949109221
  C         2.8883356618        9.1023751236       19.6333163697
  C         0.3907798375       10.7794551813       26.5913644686
  H         0.9055155510        8.9837617369       25.3142703595
  C        -0.1169169182       12.4883722551       27.7437158162
  H         5.8091742769       13.6336221899       24.4699076365
  H         4.7565784069       14.9545300097       24.7303367869
  C         5.7480717701       14.8834150278       22.8367277746
  C         2.8170858809        7.7407403527       19.3312399972
  C         3.3434633539        9.9130021668       18.4896812465
  C        -0.0856553731       10.0435516465       27.9054317548
  C        -0.3464739380       11.4006052016       28.5716039986
  S        -0.4749242443       13.9547377817       28.4548423582
  H         6.3386689177       15.7244213811       23.1567746213
  H         4.9868545455       15.2820695428       22.2058902632
  C         6.6748234870       13.8651825768       22.1105747427
  N         2.2989483154        6.8909289405       20.2894592688
  C         3.1093360047        7.1641353243       18.1154738735
  C         3.6719663613        9.3606152110       17.2166851253
  H         3.6222585468       10.9465746889       18.6828316435
  C         0.9781583625        9.1998192611       28.6670057777
  C        -1.4309939297        9.1963028813       27.6966205119
  C        -0.7923929377       11.8210918146       29.8305700437
  C        -0.9702934041       13.1690170725       29.8874925131
  H         7.6597754842       14.2038612984       22.1274880144
  H         6.7699572318       12.9514689774       22.6352881796
  C         6.1168127457       13.6657102713       20.6596839535
  S         2.3216338073        5.3896609388       19.5818898019
  N         2.8471160859        5.8192271563       18.1057938803
  C         3.5771355541        7.8853445721       17.0484450120
  H         3.8290845706       10.0687451969       16.4218207911
  H         1.3003876176        8.4073431523       28.0453316260
  H         0.6218644181        8.8121782249       29.5982301053
  C         2.2970121025        9.8747532502       28.8956294413
  H        -1.3355330330        8.5462932845       26.8719022637
  H        -1.7413664184        8.7344267435       28.6768917361
  C        -2.5615877441       10.0539751441       27.1954035996
  H        -0.8302341926       11.1092754339       30.6115152303
  C        -1.3438172990       13.9470133007       31.0953799553
  H         5.7775810392       14.6556199340       20.2193081119
  H         5.2825981497       12.9143936644       20.5375000245
  C         7.3565566052       13.3231106964       19.8229794402
  C         3.6799421800        7.2153478413       15.8036629189
  H         2.8018090763        9.8634136177       27.9135481920
  H         2.1371967532       10.8831124764       29.2625439868
  C         3.1622060578        9.3425724266       30.0155401121
  H        -2.1463111552       10.5591101989       26.2735695621
  H        -2.8841112204       10.9026714277       27.7584112348
  C        -3.8114166867        9.2571019089       26.8563953286
  C        -1.3756415056       15.3120235502       31.2715385999
  C        -1.6448457648       13.1290405024       32.3202046917
  H         8.2584810600       14.0292192109       20.0728713103
  H         7.5904029271       12.2710507594       19.8360948475
  C         7.0625647353       13.7405743521       18.3796230301
  H         3.2247054457        6.2418677241       15.7574191946
  C         3.9915551556        7.7286313385       14.5584499481
  H         3.6068203200        8.4434857602       29.7419873918
  H         2.6819059113        9.0708258116       30.9617791067
  C         4.3932286405       10.2911824403       30.2706538412
  H        -3.6811987989        8.5675072119       26.0608471030
  H        -4.1730566742        8.6002235032       27.6258717701
  C        -4.9783665313       10.2074992318       26.5474786013
  N        -0.8947844887       16.2002845602       30.3404606811
  C        -1.7431789848       15.9296863194       32.4541525065
  C        -2.0181042645       13.7112598452       33.5556360285
  H        -1.6063109628       12.0397369178       32.1942451423
  H         7.5429831363       14.7331189700       18.1396969237
  H         7.5720851072       13.0929364656       17.6939956011
  H         5.9979162701       13.8137631627       18.0995949092
  S         4.3610521352        9.3204943522       14.0904073928
  C         4.0744244564        6.6622113199       13.4940794144
  H         4.2623197274       11.1874701659       29.6721783980
  H         4.4665274768       10.6344608554       31.2675506964
  C         5.7359195884        9.5038488274       30.0240902450
  H        -4.5266252769       11.1723021766       26.2321631792
  H        -5.5898532062       10.3883578586       27.4198947119
  C        -5.7088303492        9.5834147293       25.3754299740
  S        -0.9874609742       17.6813165639       30.8780732027
  N        -1.5635454283       17.2779105971       32.3753912332
  C        -2.0500654888       15.2074353602       33.6280954720
  H        -2.2940032706       13.0652955941       34.3549183414
  C         4.6048301168        8.5815221512       12.4673885736
  N         4.4627925961        7.2232697684       12.3171941932
  O         4.1211773703        5.5073174943       13.7134454161
  H         6.5058144384       10.2407502344       30.1619915733
  H         5.7111294926        9.2366370046       28.9610937065
  C         5.9342408572        8.3850142456       30.9696223654
  H        -4.9716570542        9.4399890296       24.5994285424
  H        -6.0457691547        8.5396277654       25.6185336061
  C        -6.7434237630       10.5473710157       24.7932597179
  C        -2.3532905941       15.9588488612       34.7984829869
  S         4.9145943476        9.4456390508       10.9880352281
  C         4.4052293027        6.4379755978       11.0875283081
  H         6.4368224190        8.6877921583       31.9104551412
  H         5.0301410931        7.9539979633       31.3614817109
  C         6.7649175594        7.2706973795       30.3475536963
  H        -6.4087351885       10.8777161427       23.8568066718
  H        -6.7019336528       11.3555024193       25.4883992796
  C        -8.1266599274        9.9484205904       24.6299853515
  H        -2.0968960680       16.9981482692       34.7385624511
  C        -2.9409774636       15.7139720688       36.0191256075
  H         5.3406350319        6.6082987527       10.5550069865
  H         4.5374064320        5.3988492179       11.3175937573
  C         3.0814098084        6.5687160452       10.2923211849
  H         7.7550393078        7.6428386525       30.0286579157
  H         6.2695658334        6.9233896784       29.4092630378
  C         6.9150404054        6.1207154714       31.4183810470
  H        -8.7065838087       10.5061472037       23.9865665839
  H        -7.9785583853        8.8297061161       24.3074179294
  C        -8.8773293883        9.9708713995       26.0054726409
  S        -3.6961719673       14.2050720793       36.4847863698
  C        -3.0093257542       16.7586636242       37.0047306969
  H         3.0080028970        7.6066639151        9.8790059574
  H         3.1494311124        5.9856551398        9.4063827801
  H         2.1572833301        6.3808568788       10.8462839673
  H         7.6330883094        5.4108137633       31.1324057006
  H         5.9459502964        5.6973124561       31.6390564412
  H         7.3032175732        6.6024829409       32.3358610358
  H        -9.5181134286       10.8757519138       25.8786577090
  H        -8.3344757611       10.1110179469       26.9315409753
  H        -9.5684581243        9.1419108530       26.1954079947
  C        -3.9923887553       15.0240475803       38.0552085177
  N        -3.6442071444       16.2819634997       38.0916818480
  O        -2.4652205415       17.8670262740       36.9052942132
  S        -4.6496262466       14.1736081042       39.4799936133
  C        -3.8131111323       17.1397871451       39.2396687037
  H        -3.9384095387       18.1767821438       38.8907540430
  H        -4.6953695061       16.8759132614       39.7528910375
  C        -2.5411135560       17.0866951585       40.0423523802
  H        -1.7465800481       17.1158967394       39.3213108387
  H        -2.4800631816       17.9671033124       40.6632782030
  H        -2.3293525317       16.1281511546       40.5256497659
  H         7.1433402332       10.6105144820        3.4753620753
  C         8.1381000829       10.1457061164        3.3797810480
  H         7.9439074568        9.1113433053        3.4046549868
  C         8.9541551167       10.5918478507        4.5372528741
  C         8.7875496373       10.4441344606        2.0467319518
  C         8.2559411619       10.8000525262        5.9078062357
  H         9.8029613395        9.9064642262        4.6587463978
  H         9.4424288982       11.5031056352        4.2585068050
  H         9.3948426189        9.6203949330        1.5580108786
  H         9.5297786721       11.1971673016        2.1330600261
  H         7.9845105336       10.7151074929        1.2970813654
  C         7.5054811843        9.5062364025        6.2456370187
  H         9.0395201989       11.0688884061        6.6494108256
  H         7.6210335961       11.6616503101        5.7352840492
  C         6.7255978783        9.5596032175        7.5138915278
  H         8.2575095355        8.8104885204        6.4611633111
  H         6.8228481013        9.0137499602        5.5451632267
  C         5.4558208990       10.3902143440        7.4308834076
  H         7.3753075743       10.1122985010        8.2110862327
  H         6.5015416749        8.5565666069        7.8564121572
  C         4.3348841531        9.8444808353        6.6459973075
  H         5.0603273188       10.6340912296        8.3933836223
  H         5.6378970364       11.3224109013        6.8500386220
  C         3.0257355653       10.6705919580        6.5140683776
  H         4.1066306412        8.9121754682        7.1684547428
  H         4.7201187994        9.6341099024        5.6463857164
  C         3.2849127087       12.1086726908        5.9455258389
  C         2.5754400370       11.2779941700        7.7603343917
  C         1.8655291118        9.8674791093        5.8200641346
  C         3.1244667346       13.1576571619        6.8359269646
  C         3.7561456584       12.6381390595        4.7343188103
  C         2.6048087823       12.6132637086        7.9629182095
  C         2.1267084302       10.6336625823        8.9488237790
  H         2.2472857457        9.5266696264        4.9258381324
  H         1.6304107867        8.9673003560        6.4102215626
  C         0.6166386363       10.7485202212        5.5984815428
  S         3.5446522936       14.7267175586        6.2875234384
  C         3.9124987725       13.9940857247        4.7163996077
  H         3.9832604608       11.9025138316        3.9885817619
  C         2.2011137341       13.2229966679        9.1433896547
  H         2.1610662876        9.5429101618        9.0164620644
  C         1.8375556130       11.2256733762       10.1273054717
  H         0.8866152179       11.6340529209        5.2199802142
  H         0.2001804313       11.0271002017        6.5617830421
  C        -0.5164506184        9.9936619913        4.7605473917
  C         4.4035034626       14.7761947615        3.5682859601
  C         1.8568214462       12.5280335187       10.2540675854
  H         2.2051592310       14.2439385533        9.1489861212
  C         1.5662323298       10.8083230877       11.4243735908
  H        -1.4850257994       10.1449213613        5.2131184086
  H        -0.3337759758        8.9858274000        4.7256152261
  C        -0.4223985497       10.4773203480        3.3110259525
  C         4.2807428389       16.1626804385        3.3206247484
  C         4.9427976066       13.9989637553        2.4380650583
  C         1.5706971929       13.1728560664       11.6058646148
  C         1.3462015421       11.8653278888       12.2782876130
  S         1.2555082785        9.2667554668       12.1477743193
  H         0.6152912951       10.4137007377        2.9726244238
  H        -0.7391204292       11.5531113104        3.2367511187
  C        -1.3528151062        9.7007250342        2.4587121713
  N         3.9614026132       17.0705259401        4.2691351812
  C         4.5177192089       16.7238891561        2.0827259444
  C         5.1405771644       14.5896911457        1.1985818860
  H         4.9731130528       12.9041925893        2.5066656310
  C         0.2720878597       14.0324515422       11.7438684556
  C         2.8915817440       13.8186946431       12.0671759390
  C         1.0718392101       11.4252710462       13.6157244901
  C         0.8691755875       10.0894901630       13.6334954134
  H        -1.9298390631        9.0939543902        3.0761974290
  H        -2.0033048374       10.4040490271        1.9314037615
  C        -0.6866694534        8.8147328604        1.3638539398
  S         3.6939268440       18.4920431979        3.5721718900
  N         4.1011527828       18.0286163254        2.0873153959
  C         5.0026723375       16.0246908341        0.9368101016
  H         5.4140758605       13.9155985227        0.3843639762
  H         0.4162183033       15.0797181653       11.4208707838
  H        -0.0077466064       14.2167323444       12.7384084644
  C        -0.8382925855       13.3116090889       11.0537142654
  H         3.6842476789       13.1617599264       11.8928140678
  H         3.1361646050       14.7083859570       11.5263478204
  C         2.8835929937       14.1980237316       13.5907567714
  H         0.9089781127       12.1010523479       14.4058780788
  C         0.5387629450        9.2549691146       14.8764421984
  H        -1.3733065026        8.0918487906        0.8778463444
  H         0.0371954847        8.2128015091        1.8359366582
  C        -0.0310056480        9.6429567104        0.1780658159
  C         5.1880556077       16.6912037006       -0.3167874602
  H        -0.5679101398       12.9607330685       10.1146289738
  H        -1.0726088865       12.4311711125       11.6183615336
  C        -2.1402693553       14.0827694349       10.9463146249
  H         2.6801141016       13.3585083420       14.2748236298
  H         2.0279377481       14.8578287041       13.7750664647
  C         4.3644004771       14.7821653338       13.7848795801
  C         0.5026292053        7.8936231835       15.0051893860
  C         0.1384208151       10.0544146112       16.0308118778
  H         0.4104066502       10.6064556980        0.5085620125
  H         0.8581275464        9.0675057062       -0.0850047743
  C        -0.8795790235        9.7465898163       -1.0808147914
  H         5.1743690151       17.7445218963       -0.2094601647
  C         5.3800323969       16.2270645833       -1.6131857760
  H        -2.1073699504       14.8705809823       10.2113244911
  H        -2.2936769602       14.5943476360       11.8691063812
  C        -3.3487518009       13.2006983702       10.7453135351
  H         4.8821506790       15.0022011885       12.8538692174
  H         4.2663148101       15.6562835986       14.3264134586
  C         5.2257463351       13.9450819228       14.6914516047
  N         0.6860126554        7.0445741184       13.9417228384
  C         0.0502784212        7.2644099756       16.1621069928
  C        -0.2780534745        9.4571761918       17.2440877394
  H         0.0036839639       11.1459938952       15.9827925502
  H        -1.6084180846       10.6460137376       -1.0843212957
  H        -1.5248338253        8.8494378774       -1.1113540361
  H        -0.2425527947        9.6887346188       -2.0243131953
  S         5.6034475641       14.5433459377       -2.0304396423
  C         5.6474694769       17.1443183907       -2.6650859255
  H        -2.9728574205       12.4485487685       10.0703196718
  H        -3.6553805012       12.7490282931       11.6721852443
  C        -4.3797734019       13.9712307017        9.8275929979
  H         5.3054429891       12.9078139781       14.3846085319
  H         4.8243647903       13.9985545878       15.7205871945
  C         6.6650775144       14.4801640758       14.8692634583
  S         0.7572259915        5.5011577885       14.5308996684
  N         0.2607154776        5.8905960231       16.0799598572
  C        -0.3001129166        7.9515911117       17.3258203562
  H        -0.5704449660       10.0548130065       18.0888468899
  C         5.7739838231       15.1345624686       -3.6509663786
  N         5.8265533625       16.4598324902       -3.8147847479
  O         5.4486791663       18.3554843878       -2.5268554821
  H        -5.0405796552       14.6417090917       10.4301337913
  H        -3.9112170710       14.6920274186        9.1552730265
  C        -5.1472617474       12.9958923528        9.0033092669
  H         7.3403195864       13.8532488019       15.4286320842
  H         7.1794595059       14.5112393187       13.9405881326
  C         6.7705568077       15.9302347374       15.4292008824
  C        -0.5389916534        7.1463507299       18.4780621923
  S         6.2217100030       14.0909826281       -5.0065583188
  C         5.7482140467       17.1402299471       -5.0986910999
  H        -4.6332854714       12.8683554926        8.1227244091
  H        -5.3360009631       12.1253176838        9.5861418002
  C        -6.5534018170       13.4340682029        8.6209446613
  H         7.0614717080       15.8371734290       16.4335773797
  H         5.7961514174       16.4128415321       15.3019677543
  C         7.9275596544       16.7922141936       14.8593767070
  H        -0.3977464056        6.0181539569       18.3577960292
  C        -0.7544336843        7.4276003194       19.8059956925
  H         6.4484793455       16.7542571430       -5.8903466744
  H         6.1809142055       18.1102391389       -4.8337521229
  C         4.2709775980       17.3407088795       -5.5429261219
  H        -6.9196424962       12.7408484178        7.8553229167
  H        -6.4521266805       14.3579712167        8.0741879852
  C        -7.5975791397       13.4916382002        9.7848412481
  H         8.2719444161       17.4947774724       15.6915903272
  H         8.8666656946       16.2524322415       14.6736253786
  C         7.5295853033       17.6501385168       13.6510557923
  S        -0.9047583290        8.9219666267       20.5934079336
  C        -0.9163131485        6.2871322964       20.7562480144
  H         3.6889696575       17.7098914558       -4.6990671022
  H         3.8022059959       16.4661914688       -5.7658513907
  H         4.0887856603       17.9408231054       -6.4063208553
  H        -8.6020174227       13.6930139382        9.4559459062
  H        -7.5837115619       12.5703413143       10.3607140282
  H        -7.3426997867       14.2910760675       10.4831711082
  H         6.8986622916       18.4794981148       14.0339256772
  H         8.4935873270       18.0402741564       13.2244795484
  H         7.1014746478       16.9056324324       13.0108775370
  C        -1.3861609349        8.0290492912       22.0159834050
  N        -1.3875399171        6.6812738654       21.9612129929
  O        -0.8696106587        5.0603419976       20.3672683272
  S        -2.0315024172        8.6999852072       23.4947350917
  C        -1.6599847134        5.8545967813       23.1735490908
  H        -1.9847329429        4.8086428006       22.9228564222
  H        -2.4547498988        6.1707778095       23.8876232282
  C        -0.3979574536        5.7567493598       24.0030883019
  H        -0.5002619670        4.8717168438       24.6217343523
  H        -0.3030483733        6.6662446555       24.5931188223
  H         0.5146178317        5.5221853522       23.4390571382
