352
i =
  H        -3.5928208419       14.4254664941       16.4651980460
  C        -3.0157860321       13.5512559792       16.6366314059
  H        -3.7269215803       12.8399125204       17.1508649402
  C        -1.8459113331       13.6407441994       17.6249252159
  C        -2.5242834998       12.9763798984       15.2654034539
  C        -2.2718543846       13.9490456617       19.0588484760
  H        -1.3071102450       12.7061176986       17.5226386106
  H        -1.1425686839       14.3965722832       17.2482160219
  H        -2.3541916343       11.8724760540       15.3326112965
  H        -3.1780335968       13.2533605413       14.4759253397
  H        -1.5447486572       13.4855612381       14.9898043996
  C        -2.5473085285       12.6890437482       19.8665881905
  H        -3.1582350362       14.6015960200       18.9022673416
  H        -1.5132036087       14.4874674182       19.5212863959
  C        -2.9586891056       12.9762359092       21.3152334852
  H        -3.3883375673       12.1630151752       19.3889045383
  H        -1.6525190725       12.0866883760       19.6801468131
  C        -1.7865381093       12.5828986282       22.3139379731
  H        -3.7464340083       12.2993431308       21.5769331067
  H        -3.1939575299       14.0261041695       21.4219023170
  C        -0.4873236147       13.5938364610       22.2931322716
  H        -2.1663616982       12.4779274918       23.3485697005
  H        -1.5077968790       11.5970511855       21.9971634971
  C         0.7880191951       12.9965427552       23.0451280171
  H        -0.1748663806       13.6628782106       21.2376824153
  H        -0.7532545199       14.5220116210       22.7498986506
  C         1.1707884887       11.6396043206       22.4292731215
  C         0.3905694441       12.3443629473       24.3383158518
  C         1.9673050884       13.9907488293       23.2565227024
  C         0.9969158637       10.5395807495       23.2089578978
  C         1.8052976895       11.2377620688       21.1766237845
  C         0.5155969953       10.9776839365       24.4691259186
  C        -0.0257104737       12.9601432331       25.4909702354
  H         2.2146346759       14.4605343658       22.2731434672
  H         1.6800515297       14.7359904795       23.9493959181
  C         3.2537458333       13.2765969599       23.7695843792
  S         1.1366869010        9.0359585240       22.5356945685
  C         1.7619976641        9.8672734262       21.1416586974
  H         1.9077886157       12.0427437529       20.4828561301
  C         0.0638800943       10.3685051176       25.6084800304
  H        -0.0398553215       14.0148708642       25.3324023842
  C        -0.3345792316       12.3453102125       26.6262218767
  H         3.6234797113       12.4036031293       23.2146139279
  H         2.9800362786       13.0173525824       24.7958085727
  C         4.4613879386       14.1878103376       23.9526071429
  C         2.3331425098        9.0783304043       19.9934695675
  C        -0.3346455058       11.0216333082       26.7638715167
  H         0.0953766941        9.3515660419       25.6284193055
  C        -0.6993186871       12.8008415460       27.9111162941
  H         5.1635700143       13.8185037560       24.7091238137
  H         4.0815350371       15.2165797144       24.2305124211
  C         5.2536698768       14.2684296800       22.6105086540
  C         2.2013966716        7.6544309957       19.7835693570
  C         2.9487776707        9.8657446813       18.8729182239
  C        -0.7629096853       10.2821205772       28.0568543427
  C        -0.9281815504       11.6871979831       28.7413409204
  S        -0.9872409927       14.2987444954       28.6344856906
  H         5.9479024494       15.1226040156       22.5615860241
  H         4.4656395321       14.3755964266       21.8775047929
  C         6.0862552282       13.0317951413       22.3635176089
  N         1.8221520508        6.7379624212       20.7537493853
  C         2.4641383040        7.0731653409       18.5282447165
  C         3.2509508138        9.2440676838       17.6663140727
  H         3.1446572921       10.8926883533       19.0074081250
  C         0.3943594777        9.4573665590       28.6767333272
  C        -2.0860694637        9.4632915675       27.9123076579
  C        -1.3959420598       12.1369293933       30.0550544000
  C        -1.4227311696       13.5304171363       30.1174214670
  H         7.2088547872       13.2543281603       22.5739289094
  H         5.7928090254       12.1569245753       22.9509404702
  C         6.1139832741       12.6916025072       20.9126722857
  S         1.7008851826        5.2420755997       20.0589407518
  N         2.1638058649        5.6927210130       18.5382341062
  C         2.9176461918        7.8444719860       17.4322875824
  H         3.4449724990        9.8772082513       16.8781618439
  H         0.8052949648        8.9919630158       27.7619477767
  H        -0.0445025243        8.6942827430       29.3373019160
  C         1.3444778499       10.2611598090       29.4623708781
  H        -1.8711188907        8.6496935380       27.1720600106
  H        -2.3557679358        8.9882089224       28.9033771047
  C        -3.1891555061       10.3537645537       27.3273264186
  H        -1.8047663036       11.3766885824       30.7467713621
  C        -1.7298763022       14.2161996565       31.4029536440
  H         5.0955274993       12.3145589228       20.6025001186
  H         6.8433838759       11.8762734588       20.9068033603
  C         6.6968065687       13.8532048497       20.0784719635
  C         3.1919454582        7.1746997851       16.1909430798
  H         1.6901157513       11.1179082457       28.8673449769
  H         0.9997004167       10.6406326881       30.4315370827
  C         2.4514913347        9.2576825937       29.9638871019
  H        -2.9924556887       10.5845736009       26.2765401151
  H        -3.2751076747       11.3219146613       27.8306583571
  C        -4.5539458087        9.6291135149       27.4958159731
  C        -1.7150029070       15.5939662313       31.5723220989
  C        -2.0496836232       13.4198070646       32.6372227394
  H         5.9616803429       14.5511709792       19.7858107748
  H         7.5216582668       14.4695027904       20.4846467364
  C         7.3048162563       13.4538294994       18.6456867502
  H         2.9720839333        6.1204425564       16.1866178414
  C         3.5078909832        7.6016934265       14.9323888559
  H         2.8152180082        8.5003839901       29.2186151402
  H         2.0149060433        8.6330911592       30.7400051326
  C         3.6706159297        9.9986438975       30.5758077782
  H        -4.6699978454        8.6874840049       27.0393545188
  H        -4.7379451066        9.3402669549       28.4796263424
  C        -5.7220413024       10.4917789578       26.8442900347
  N        -1.5199282957       16.4973796606       30.5506771727
  C        -1.9842319079       16.2012198016       32.8095527867
  C        -2.3576403621       14.0056278638       33.8558258815
  H        -2.0036061504       12.3357904656       32.6432127363
  H         8.0967950644       14.1299156247       18.2499416797
  H         7.6485228948       12.4137089911       18.5997949041
  H         6.4524229789       13.5103017193       17.8975517606
  S         3.9098627020        9.1785215594       14.4415922619
  C         3.4920734153        6.6337206465       13.8045023702
  H         3.9502175658       10.9999829927       30.1695590802
  H         3.5508598555       10.1689358196       31.6817428175
  C         5.0248465754        9.1970310362       30.5759971968
  H        -5.2771721096       11.3440772985       26.3304056159
  H        -6.1970159480       10.9440499877       27.6991425183
  C        -6.6652995270        9.7576017044       25.9363092440
  S        -1.6420855440       18.0492232805       31.1319204275
  N        -1.8861850497       17.6310243464       32.7317802677
  C        -2.3742938860       15.5029161689       33.9625503930
  H        -2.5919161509       13.3273680697       34.7074776344
  C         4.2018968698        8.5539287662       12.7956295912
  N         3.9805141424        7.2274806323       12.6566634124
  O         3.2359661537        5.4067376737       13.8921838819
  H         5.9004201369        9.8145659585       30.8072316291
  H         5.1841427334        8.8840722300       29.5981823756
  C         4.9404256031        7.9548134596       31.4943992217
  H        -5.9876143658        9.2967597772       25.2095855598
  H        -7.0793748258        8.8078918973       26.4338619603
  C        -7.8140302251       10.6444743596       25.3163895653
  C        -2.6106825356       16.2198695503       35.1667963751
  S         4.4926129659        9.6334892525       11.5152631300
  C         4.0316813095        6.4163196257       11.4615449378
  H         5.5039917623        8.0973097573       32.3765549131
  H         3.9926839302        7.7741231309       31.8442050231
  C         5.3594063135        6.6318882564       30.8367181000
  H        -7.3744368071       10.9988982624       24.3575150465
  H        -7.9653155938       11.5624334473       25.9401831714
  C        -9.1691110354        9.8191118096       25.1374820891
  H        -2.4071099054       17.2506121018       35.1593738587
  C        -3.1556825225       15.8529242255       36.4234528677
  H         4.8810500058        6.6855235692       10.8104199171
  H         4.1733515224        5.3285215881       11.6412417450
  C         2.8200696760        6.5990383983       10.5403506190
  H         4.7568260148        6.5843869927       29.8909846275
  H         5.0646681965        5.7770915497       31.4274876313
  C         6.8439940269        6.5983325473       30.5958796108
  H        -9.8949467910       10.4055323400       24.5110573740
  H        -8.9876649704        8.8385373540       24.7427052427
  C        -9.7632995869        9.5148587992       26.4919259300
  S        -3.7579362599       14.2768687504       36.7197818888
  C        -3.3922569980       16.8753589275       37.4364573708
  H         2.7932028195        7.5970118485       10.0202285918
  H         2.9551494204        5.8576407391        9.8069638915
  H         1.8295828739        6.3751877479       10.9708355260
  H         7.3151897073        7.0449850820       31.4684729947
  H         6.9527296053        7.2308504689       29.6982736794
  H         7.0754544546        5.6054553210       30.4452733432
  H        -9.4673962882       10.3367814079       27.1726170922
  H        -9.3234789683        8.5007548917       26.7787527490
  H       -10.7640236360        9.3462615836       26.5016731661
  C        -4.1533735675       14.9232795886       38.3433498723
  N        -3.9400143305       16.2630735785       38.4881183697
  O        -3.0449909197       18.0554773984       37.4338875976
  S        -4.8883969303       14.0160502579       39.6994595046
  C        -4.0053097150       16.9898944609       39.7285633013
  H        -4.2734268906       18.0542526023       39.6039914214
  H        -4.6575600147       16.5595491727       40.4750678659
  C        -2.5345368472       16.7887949888       40.3631827890
  H        -1.6675020139       16.7427624896       39.6647428633
  H        -2.4912438094       17.6718237799       40.9972095934
  H        -2.4153628263       15.9971225367       41.0354841799
  H         8.0636110947       11.3532109015        3.7730247645
  C         8.5606201154       10.4280473208        3.8766349865
  H         7.6756576100        9.7512766507        3.8757255519
  C         9.2067388217       10.4857972076        5.2487215441
  C         9.4969183742       10.2466936121        2.8008357299
  C         8.2297672236       10.7457961108        6.4207334097
  H         9.8636385345        9.6448590247        5.4221514940
  H         9.9189198644       11.3135379858        5.2302401156
  H        10.2062243022       11.0709105613        2.7276102177
  H         9.0060910265       10.1812684443        1.7865571240
  H        10.1527394465        9.3215443655        2.9745732611
  C         7.3517856923        9.5597320124        6.6988556296
  H         8.7495951638       11.1015012236        7.3371341774
  H         7.5525900203       11.5080456220        6.1069736888
  C         6.6724864244        9.6426295626        8.0728661439
  H         7.9237523272        8.6169672702        6.8401701987
  H         6.5713479892        9.4612476637        5.9595394684
  C         5.3545080110       10.3819339098        8.0770610340
  H         7.3533660847       10.1006289524        8.7700463853
  H         6.3578219891        8.6397398376        8.3727230936
  C         4.0779006922        9.6569309456        7.6341800015
  H         5.1076725380       10.7741752648        9.0675323950
  H         5.5538144740       11.3623520773        7.6093178532
  C         2.9101236471       10.5746709840        7.2607868529
  H         3.7000562693        8.9821902817        8.3709055394
  H         4.3432882061        8.9502985132        6.8378616196
  C         3.3281278327       11.9266165545        6.6451921088
  C         2.3536119062       11.2671113499        8.4171442992
  C         1.8602879788       10.0186459517        6.2964154218
  C         2.9232481235       13.0542930800        7.2906242897
  C         3.9849397162       12.3264188208        5.4376520925
  C         2.2985896301       12.6141449130        8.4498267110
  C         1.8485128624       10.6082856458        9.5692678041
  H         2.3057861442       10.0327151321        5.2960117992
  H         1.6311454932        8.9720258798        6.6186318342
  C         0.5257436189       10.8689631904        6.0500620456
  S         3.3366590931       14.5737788516        6.5428238846
  C         3.9803822374       13.6924621345        5.2547048898
  H         4.4118931422       11.6112634529        4.8132304996
  C         1.8184976775       13.2264041578        9.5353697076
  H         1.9779839961        9.5540315574        9.4784791412
  C         1.3839935520       11.2683726906       10.6768913800
  H         0.7826000365       11.8440918300        5.6329644591
  H        -0.0187309060       11.0566603541        6.9504736684
  C        -0.3562846884       10.0950877593        5.0839111120
  C         4.2630786380       14.4076160328        3.9843765941
  C         1.3340162484       12.6166326540       10.7141633604
  H         1.7088145440       14.2979987307        9.4646934521
  C         1.0689290758       10.8789674487       11.9884676027
  H        -1.4447025726       10.2147046286        5.3201934795
  H        -0.2462873492        9.0605631427        5.2316710863
  C        -0.0562018438       10.5348627790        3.6320617739
  C         4.2538508446       15.7890630337        3.7779678726
  C         4.7323143095       13.5425582576        2.8437523786
  C         0.8772890522       13.3586197088       11.9637918646
  C         0.7463689606       11.9981431488       12.7374298738
  S         0.9523822862        9.3392685544       12.7285974820
  H         0.9790054865       10.4136143546        3.3805390415
  H        -0.0575105340       11.6187361059        3.6192647397
  C        -0.9478572631        9.9618587338        2.5259532141
  N         3.9542514454       16.7524646472        4.6981377751
  C         4.5449599312       16.2826378876        2.5575768529
  C         4.9470375653       14.0597803236        1.6174522663
  H         4.9826055926       12.4848224109        2.9372280758
  C        -0.4963028629       14.0177746487       11.8190793476
  C         1.9582918708       14.3190299437       12.5686041832
  C         0.4945622445       11.5143223711       14.0112176817
  C         0.5283392685       10.1361485424       14.1346384043
  H        -1.3896109020        9.0979926617        2.8008904556
  H        -1.7385983931       10.5849535032        2.2176757713
  C        -0.0873079313        9.6287580193        1.2771716709
  S         4.0078061574       18.2503184885        4.0420194643
  N         4.5606117418       17.6993101966        2.5624866502
  C         4.7967244512       15.4971171938        1.3925463657
  H         5.2968719548       13.4494001598        0.8385371373
  H        -0.3267679995       14.9624885737       11.3082908039
  H        -0.8098515472       14.3102809431       12.7881432408
  C        -1.5726844603       13.2109539650       11.1451167729
  H         2.2657974088       15.0158567790       11.8222455481
  H         1.4593733819       14.9576507375       13.2811553305
  C         3.1132944154       13.5040334769       13.2039886110
  H         0.3441215856       12.2018808736       14.7350714958
  C         0.1217016312        9.3780338177       15.3647003249
  H         0.4402357626        8.7135297500        1.6172485786
  H         0.5836734550       10.3824954726        1.1348348963
  C        -0.8200299144        9.2075281017       -0.0286165389
  C         5.1307035116       16.1548753295        0.1585771767
  H        -1.1605440765       13.0235370688       10.1311246729
  H        -1.7365697085       12.2852955461       11.7452959110
  C        -2.7563639022       14.0472238838       10.8845838827
  H         3.4568024410       12.6767367694       12.5723372931
  H         2.6937291146       13.0174882946       14.0955313151
  C         4.3469063916       14.2996704311       13.6712331318
  C        -0.0423083208        7.9596426573       15.4497232902
  C        -0.1525927407       10.0853218146       16.6347911939
  H        -0.0917837582        9.0159647321       -0.7820993323
  H        -1.3591340717        8.3201980972        0.1651057701
  C        -1.7432937831       10.3336787230       -0.7102975117
  H         5.0270897341       17.2166737495        0.2457232803
  C         5.4098739503       15.7480058233       -1.1473500401
  H        -2.7330801111       14.2907392216        9.8229137927
  H        -2.7676822176       14.9739685668       11.4486766433
  C        -4.0514869918       13.2268436205       11.1469090001
  H         4.7263238317       15.0854480035       12.9932056887
  H         4.0107580086       14.6800073531       14.6560337998
  C         5.4961223663       13.3837875571       13.8133286382
  N         0.1961121675        7.0546650095       14.4337951987
  C        -0.4085980366        7.3468349384       16.6404760399
  C        -0.5152353080        9.5118183852       17.7917809761
  H        -0.0185785945       11.1635676335       16.6738450790
  H        -2.6130378189       10.4724674084       -0.0914866254
  H        -2.1089189611       10.0977677538       -1.7270525581
  H        -1.3617886497       11.3375615060       -0.6711630861
  S         5.6144711086       14.0681317492       -1.6777086296
  C         5.4559529280       16.7008901735       -2.2679763708
  H        -3.8520758924       12.2668181363       10.7130698930
  H        -4.2012862407       13.0763222644       12.2316324392
  C        -5.2643365257       13.8217314324       10.5187133362
  H         5.8978216461       13.3824750696       12.7750017144
  H         5.1657338144       12.3369293382       13.9154591847
  C         6.6321379792       13.8110661175       14.7907529437
  S         0.0178325951        5.5752580824       14.9294448976
  N        -0.4907348483        5.9611005902       16.4714310829
  C        -0.6631600313        8.0653345396       17.8304489165
  H        -0.6923827599       10.0723983771       18.6487588087
  C         5.7800081599       14.7189146134       -3.2848883732
  N         5.6983383318       16.0402756480       -3.4174369382
  O         5.2850480215       17.9168099823       -2.0648306178
  H        -5.8901415997       13.8211293754       11.4265037141
  H        -5.1318252118       14.8970171950       10.1495596656
  C        -5.7945378277       12.8839027505        9.3491777950
  H         6.1590080869       13.9880724577       15.7195048841
  H         7.3298940485       13.0446465531       14.8191476027
  C         7.3997001595       15.0819521177       14.3717098721
  C        -0.9680052717        7.2452439213       18.9967508938
  S         6.1692193535       13.5612334093       -4.5384928883
  C         5.7656026069       16.6441821862       -4.7537213539
  H        -4.9622739944       12.7185807339        8.6595181215
  H        -6.2458063664       12.0112105743        9.7051529723
  C        -6.8714357840       13.6547203413        8.6248549538
  H         7.0512593442       15.5372640564       13.4617316526
  H         8.3220793384       14.7719629094       14.0910138191
  C         7.4612156667       16.0627196672       15.5265836043
  H        -0.7820846305        6.2049084303       18.8976476176
  C        -1.5394670373        7.6338367169       20.1796429735
  H         6.2263557183       16.1137847438       -5.4996536822
  H         6.4237044228       17.5127839954       -4.6020161999
  C         4.4212923409       17.1700123622       -5.2383590171
  H        -7.1861749261       13.1033919875        7.7735343605
  H        -6.4162578307       14.5892217429        8.2144889631
  C        -8.0244399140       14.0318065792        9.5002880089
  H         6.5660417536       16.5679216973       15.8014020605
  H         7.6930685728       15.4762184319       16.4177270617
  C         8.5238567976       17.1474041608       15.3431779989
  S        -2.0686901144        9.2078641327       20.6829972193
  C        -1.7431647542        6.6664821653       21.1868535864
  H         3.7288014425       16.3618022003       -4.9950430670
  H         4.3651310881       17.2604040527       -6.3380681731
  H         4.1823534832       18.1195863303       -4.8366050825
  H        -8.7318232836       14.4624020364        8.8608266901
  H        -8.4645610321       13.1145888224        9.9063960685
  H        -7.7203569108       14.7222544158       10.3202804614
  H         8.5918279589       17.3978342913       14.2653517879
  H         8.2424857773       18.1026142968       15.9496146271
  H         9.5063343716       16.7612773081       15.7272070809
  C        -2.6108559262        8.5043492981       22.1770677411
  N        -2.2919732829        7.1750056135       22.2959815266
  O        -1.4686597410        5.4692917630       21.0272890065
  S        -3.1104118671        9.3993411142       23.5713981955
  C        -2.4382037170        6.3834851916       23.5681273424
  H        -2.7601770839        5.3316823669       23.3173908670
  H        -3.2093548117        6.8518875691       24.1107260167
  C        -1.1318122371        6.4258917182       24.3929757357
  H        -0.8323941831        5.4391295968       24.6046892362
  H        -1.2916730593        6.9870775299       25.2815068307
  H        -0.2156645664        6.7616042520       23.8913209006
