352
i =
  H        -3.4477045008       14.7077362883       16.8561146073
  C        -3.1886431095       13.6231938056       16.5974787410
  H        -4.0033687998       12.9451420831       16.7601442920
  C        -2.0368430490       13.3216111677       17.4916843488
  C        -2.7579552173       13.5001941293       15.0721118831
  C        -2.5573730191       13.3168922952       18.9565543983
  H        -1.6592959541       12.3363859002       17.1562280318
  H        -1.2274955952       14.0343957546       17.3621316193
  H        -2.8960408572       12.5065994708       14.7222019466
  H        -3.3312454584       14.2076583142       14.3919462571
  H        -1.7634915163       13.7793638779       14.9585123713
  C        -1.4939785269       12.9291317185       19.9824537788
  H        -3.4379557286       12.6731057771       19.0775821437
  H        -2.9930008471       14.2719423919       19.3786674728
  C        -1.9742218230       13.2082218852       21.3872122899
  H        -1.1232404912       11.9273479537       19.8331314454
  H        -0.6319105232       13.5890942251       19.7516500234
  C        -1.0614254722       12.5341276396       22.4431270531
  H        -3.0118529391       12.7632505212       21.4544481435
  H        -2.0649059475       14.2563267512       21.5214312568
  C         0.2377653140       13.3481098796       22.8051312107
  H        -1.6260995614       12.5597297984       23.3650268920
  H        -0.9377729200       11.4568184107       22.2613187471
  C         1.3111451035       12.5877361261       23.5424921603
  H         0.6438169556       13.7648729997       21.9233209671
  H         0.0345675510       14.3028787852       23.3692025019
  C         1.5825842794       11.2690436787       22.8859742034
  C         0.7933858502       11.9601066613       24.7774666405
  C         2.6613278565       13.4352970324       23.5025079977
  C         1.1534737594       10.2240855167       23.6278514320
  C         2.1489922808       10.8937902558       21.6279783642
  C         0.7510344524       10.6374044773       24.9093526356
  C         0.2893028156       12.6780782019       25.8817411276
  H         2.8711339026       13.8187986338       22.4684076290
  H         2.3861375252       14.3156670674       24.1397575349
  C         3.8693291847       12.7855376627       24.2612487946
  S         1.4172513317        8.7193770427       22.7705931803
  C         2.1159985674        9.5453195027       21.4264727708
  H         2.4937864689       11.6933841434       20.9645214250
  C         0.3322142802       10.0129622487       26.0334530189
  H         0.3165391877       13.7287663379       25.7883927262
  C        -0.1373036072       12.0941066188       27.0565767172
  H         3.9830745901       11.7693931184       23.8516822972
  H         3.6438223893       12.7807520208       25.3027495355
  C         5.1863321374       13.6170579268       24.2010938640
  C         2.6896462297        8.8356633959       20.1911163158
  C        -0.1553696806       10.7238705960       27.1885226644
  H         0.3767819914        9.0054411316       26.1099177955
  C        -0.6434629627       12.5353004496       28.2361357634
  H         5.9791271296       13.1344019516       24.7847260485
  H         4.9935027601       14.5412140386       24.6312956074
  C         5.7234529900       13.9501484895       22.8223207211
  C         2.6126901190        7.4452499966       19.8827578743
  C         3.2986983725        9.6388580204       19.1069444258
  C        -0.6666283282       10.0957627396       28.4775142087
  C        -0.9540145390       11.5283598075       29.0815146388
  S        -0.8635869934       14.0692954631       28.9118734173
  H         6.4323030036       14.7236794762       23.1239897481
  H         4.8707659826       14.4068723322       22.2494527636
  C         6.3589015054       12.7811744038       22.1220974329
  N         2.2336308562        6.4481168016       20.7715634325
  C         2.8368094113        6.8285733578       18.6571254066
  C         3.4923528320        9.1137352700       17.8275930821
  H         3.2641916860       10.6982358576       19.2122953571
  C         0.4482140159        9.3457299043       29.2822636499
  C        -2.0165866744        9.2733176096       28.2860046940
  C        -1.3261848397       11.9346307004       30.3579761869
  C        -1.3649830493       13.2873210482       30.4085789042
  H         7.3598863307       13.0911388295       21.7364420303
  H         6.5035613932       11.9297933573       22.7519166254
  C         5.5416478560       12.2500594879       20.9190693046
  S         2.0955870853        5.0172861972       20.0378591675
  N         2.6910060021        5.4676186901       18.6226593721
  C         3.2314098483        7.6434610250       17.5764208726
  H         3.8231316369        9.9146508977       17.0448469216
  H         0.7397187091        8.5170980527       28.6920930554
  H         0.1302757887        9.0031747495       30.2706117823
  C         1.6721652820       10.1744927489       29.6598558597
  H        -1.7481197599        8.3760532425       27.7326004112
  H        -2.3313526803        8.8014008812       29.1855241273
  C        -3.1374036768       10.0002434687       27.5895215641
  H        -1.7237753552       11.1952053210       31.0593982776
  C        -1.7423186469       14.1716994017       31.6071811696
  H         4.5307849528       11.9381278842       21.3186363426
  H         6.0811155346       11.3380729449       20.6191360828
  C         5.5500025691       13.2237981912       19.7571490293
  C         3.3976231703        6.9970169530       16.3396045152
  H         2.0203004239       10.7015771733       28.7429540978
  H         1.5107901121       10.8745857662       30.3991415894
  C         2.8921592339        9.2571643568       30.0781014580
  H        -2.7190279634       10.2158484158       26.5953383972
  H        -3.3612554920       10.9564393897       28.0786185387
  C        -4.5069198450        9.2227911141       27.4229664783
  C        -1.7577673469       15.6496717714       31.6159240957
  C        -2.1109323796       13.5419466150       32.9169526972
  H         4.7851844659       12.9336795145       19.0725942382
  H         5.2799200836       14.2179923143       20.0269382776
  C         6.8740882664       13.2467240016       18.9467526823
  H         3.3591787026        5.9072065451       16.4356365138
  C         3.6633450318        7.5411850048       15.1359849532
  H         3.2654859858        8.6713947206       29.2223022905
  H         2.5191956060        8.4386278064       30.7263053556
  C         4.0171092291       10.0293769536       30.7837116736
  H        -4.3105010394        8.4455823642       26.6835237378
  H        -4.8102192981        8.7340018359       28.4128149577
  C        -5.6226155619       10.1692942134       27.0360501219
  N        -1.4191529185       16.4596165014       30.5925744843
  C        -2.0253806162       16.3866861871       32.7346312456
  C        -2.3973216917       14.2573015915       34.1081692689
  H        -2.2652519632       12.4692350909       32.9652183203
  H         6.7255675297       13.8801061044       18.0678303348
  H         7.6822410740       13.6171058312       19.5907271975
  H         7.1003121469       12.2422177709       18.6666769730
  S         3.7930049109        9.1776866368       14.6347186810
  C         3.8483570071        6.5541085466       14.0552338418
  H         4.0168861472       11.0199214823       30.4348803227
  H         3.9238568909       10.2500084693       31.7859946863
  C         5.3731927779        9.2660477564       30.6682648333
  H        -5.2594155481       11.0806121414       26.5354839053
  H        -6.1482166913       10.4793892983       27.9267944637
  C        -6.7154312677        9.5653289309       26.1258253243
  S        -1.4202930454       18.0302690937       31.0341425513
  N        -1.8553227092       17.7790135567       32.5335879907
  C        -2.3830297875       15.7829737957       34.0144483352
  H        -2.6866546195       13.7369774179       34.9942768526
  C         4.2579807820        8.5265991482       12.9944609225
  N         4.1901452409        7.1750464141       12.9279778529
  O         3.8429524074        5.3434488460       14.1680712438
  H         6.1701657513        9.8045778207       31.1632345663
  H         5.8125952483        9.2112006745       29.6289669211
  C         5.4181795754        7.9222421985       31.3776341796
  H        -6.4051889717        9.4909681256       25.0718767707
  H        -6.9834644461        8.6564321604       26.5636688065
  C        -7.9739780501       10.4735305831       26.0598556918
  C        -2.7373789024       16.6467490895       35.1162746164
  S         4.7542255372        9.5216024604       11.5897197084
  C         4.3418679815        6.4792050851       11.6709241403
  H         6.2730383008        7.8484805824       32.0923174264
  H         4.4522206026        7.7613687486       31.9616984917
  C         5.4930725805        6.7300546195       30.4716274826
  H        -7.6444927998       11.4460453377       25.6809478217
  H        -8.3724735935       10.5092825264       27.0779258789
  C        -8.9872868206        9.9969513858       25.0877765357
  H        -2.6236476393       17.6512139552       34.8835676281
  C        -3.2576958667       16.4109542921       36.3549265015
  H         5.1383232995        6.9813758338       11.0631484889
  H         4.6219170154        5.4943752048       11.9348590639
  C         3.0201268019        6.3209125706       10.8739221501
  H         4.7146031297        6.6738853261       29.7716201929
  H         5.3152881820        5.8811588504       31.1624643237
  C         6.8285470905        6.6118378776       29.7167997060
  H        -9.0343867256       10.7240312459       24.2565236300
  H        -8.6499050568        9.0321679481       24.6874548284
  C       -10.3123256372        9.7602328438       25.7837827427
  S        -3.7472403923       14.8598626824       37.0540883083
  C        -3.3764530274       17.5862901858       37.2298687813
  H         2.7918422795        5.3103937611       10.5531197323
  H         2.1916275418        6.7758689109       11.4875833171
  H         3.0954060330        7.0128457002       10.0515338073
  H         7.6254234703        7.1429731473       30.2079540577
  H         6.7842586591        7.1737620275       28.7915128336
  H         7.1012462976        5.4926693688       29.4676645161
  H       -10.5916759834       10.7106416102       26.2737675710
  H       -10.1364711018        8.9436146754       26.5003473713
  H       -11.0483103483        9.2973962349       25.2155129224
  C        -4.0081757387       15.8330036115       38.5236694009
  N        -3.7851637123       17.1916860838       38.3930320086
  O        -2.9020974482       18.6823872953       36.9662840400
  S        -4.3710795160       15.2183020636       40.1194161930
  C        -3.8738204048       18.1738853645       39.4743507191
  H        -4.1081002020       19.2003362380       39.1202081451
  H        -4.8092367873       17.8659799698       39.8990555854
  C        -2.6480706851       18.1739106257       40.3087231067
  H        -2.5188255740       17.3854182445       41.0006291989
  H        -1.6912520584       18.2834359195       39.7383519030
  H        -2.8291556327       19.0843100669       40.9434828114
  H         7.5116550972       11.6849925985        3.4813224846
  C         8.0509698366       10.6991203057        3.5565628018
  H         7.2787148961        9.9486937540        3.6208097730
  C         8.8169729441       10.6547986929        4.8654645445
  C         8.8785909646       10.4207400296        2.3443030058
  C         7.9773951710       10.7083012177        6.0787487552
  H         9.5176387062        9.8758369352        4.8529038698
  H         9.4735307032       11.5463355200        4.8339277662
  H         9.6818503595       11.1994313826        2.3565475231
  H         8.3386666887       10.5383653948        1.3784889772
  H         9.2262392204        9.4170557904        2.5058429631
  C         7.4078163251        9.2790599334        6.4666121299
  H         8.6171542890       11.0707581853        6.8863139797
  H         7.1767738159       11.3873567264        6.0455240364
  C         6.6796238251        9.3515281698        7.8423740304
  H         8.3878631109        8.7753214895        6.4222496951
  H         6.7845440597        8.9250222567        5.6271492153
  C         5.4215652793       10.1715689530        7.8844107181
  H         7.3200854660        9.8024154533        8.5875199339
  H         6.4663401890        8.3453686025        8.1817619273
  C         4.1112640036        9.4839941269        7.3379490794
  H         5.2199639658       10.3591040759        8.9395614609
  H         5.6409501482       11.0512247808        7.3146628444
  C         2.9523980293       10.3643911503        7.1189593880
  H         3.7462419848        8.6021596830        7.8507026276
  H         4.4453838616        9.1403548529        6.3381860636
  C         3.3069447375       11.6708539350        6.4609131985
  C         2.5394289458       11.0936996747        8.3769106067
  C         1.6895562340        9.7177842624        6.3756005825
  C         2.9292183601       12.7878753971        7.1857092061
  C         3.7798569764       12.0001763177        5.1673305417
  C         2.4881451928       12.4329944070        8.4604962817
  C         2.0305419582       10.5019783628        9.4933884858
  H         2.0284140392        9.1287159597        5.5080739033
  H         1.3500269540        8.9443398173        7.0486787056
  C         0.5438344453       10.5556236676        6.0220425709
  S         3.1603148523       14.1873187313        6.3275557013
  C         3.7844186781       13.3836417867        4.9725277476
  H         4.1030895800       11.2040282146        4.4397874844
  C         2.1037939577       13.0784706873        9.5740721226
  H         1.9524978872        9.4317850388        9.4108431040
  C         1.5927841911       11.1227986838       10.5911409349
  H         0.7985308887       11.4328237165        5.4691491953
  H         0.1178098313       11.0090119300        6.9487356548
  C        -0.4966977920        9.9174364941        5.1040883941
  C         4.2431302815       14.0913233361        3.7894214662
  C         1.6120465111       12.4559410958       10.7343433897
  H         2.1090824654       14.1450016265        9.5805293196
  C         1.2288712991       10.7484586564       11.8553004457
  H        -1.4795498163       10.3821504817        5.1870402454
  H        -0.5668494273        8.8508691643        5.3621799309
  C         0.0314248185        9.8923983820        3.6927410167
  C         4.2814230277       15.4864892324        3.6210727329
  C         4.7041947295       13.2851257564        2.6330344576
  C         1.1883673134       13.1463728837       12.0145054549
  C         0.9046032165       11.7942790056       12.6374744402
  S         0.9433425990        9.1908004318       12.7029345513
  H         0.5597755918        8.9707348767        3.4793779963
  H         0.5900799189       10.7861623299        3.4555620401
  C        -0.9630984366        9.9870627412        2.5519035143
  N         3.9681162840       16.3987445917        4.5757460978
  C         4.6312075007       16.0706312383        2.3938557470
  C         4.9772131992       13.8895888338        1.4390976297
  H         4.9900064692       12.2116847314        2.8335308542
  C        -0.1142820442       14.0596713766       11.8699756222
  C         2.2510710086       13.9115368315       12.7352721403
  C         0.4531461502       11.4193937355       13.9377155486
  C         0.5561381741       10.0454554943       14.0948775629
  H        -1.4953205037        9.0812312503        2.7554063990
  H        -1.5774369915       10.8504611924        2.5614538805
  C        -0.3377217710        9.9621407312        1.1800091075
  S         4.2118645905       17.9059391675        3.9546917322
  N         4.6045318000       17.4230115657        2.4316843719
  C         4.9439893431       15.3867617862        1.1909967124
  H         5.2208672806       13.2127631680        0.5913289778
  H         0.1642009057       14.9260663421       11.3413883662
  H        -0.5874763413       14.3486649119       12.7925823225
  C        -1.1641883862       13.3497100476       11.0389433269
  H         2.5803848803       14.7829797331       12.2155790579
  H         1.7118487627       14.3132490955       13.6241667348
  C         3.4893114086       13.0637908871       13.1714503019
  H         0.2815561838       12.1873595763       14.6789716198
  C         0.3650689678        9.3583433451       15.4155216857
  H         0.3448408370        9.1159995149        1.0911257585
  H         0.3383266146       10.8911105935        1.0955288635
  C        -1.4175267724       10.0678612316        0.1467104543
  C         5.2899498941       16.1441147039       -0.0048136536
  H        -0.8217025499       13.3033160753       10.0344900079
  H        -1.3733877700       12.3549862302       11.4183035137
  C        -2.5278096221       14.0286362604       11.0248540294
  H         3.9801681610       12.3386060583       12.4910691515
  H         3.1335362681       12.4769735192       14.0029855172
  C         4.6296435881       13.8851244353       13.6989382627
  C         0.3154591982        7.9401679120       15.5004918622
  C         0.3485514868       10.1223729313       16.6902203047
  H        -1.9855946571        9.0999133796        0.2342862447
  H        -2.1516089790       10.7860065355        0.5103907550
  C        -0.9134993549       10.2621561648       -1.2699760296
  H         5.1676047176       17.1963250326        0.1169474185
  C         5.6374696875       15.7981679143       -1.2785183307
  H        -2.5001893813       15.1221575159       11.0673992130
  H        -3.0440310774       13.7447461003       11.9351469576
  C        -3.2546268384       13.6440455730        9.8054396631
  H         4.9272385992       14.4514869137       12.8479384313
  H         4.3372770137       14.4934701515       14.5897405030
  C         5.7479472933       13.0165231842       14.1616046998
  N         0.6017683927        6.9841015548       14.5162720487
  C        -0.0087370296        7.3233973003       16.6951872102
  C         0.1188789433        9.4822736542       17.8907546673
  H         0.3817225511       11.2292924004       16.6445504169
  H        -1.3021461825        9.3995143440       -1.8383893748
  H         0.1424955254       10.4264661830       -1.3805133020
  H        -1.3402072702       11.1217461586       -1.6968973304
  S         5.8970104545       14.2117281592       -1.9029209402
  C         5.9110035268       16.9146339221       -2.2244224087
  H        -3.0017771526       14.3134616387        8.9727084232
  H        -2.9864004129       12.6516171256        9.5925288795
  C        -4.7785148320       13.6445104016        9.9810896671
  H         6.3079566500       12.7343510829       13.3268148394
  H         5.3806517931       12.1224164980       14.6161655201
  C         6.5361094132       13.6431196805       15.2709182197
  S         0.4027994569        5.4287162855       15.1394754587
  N        -0.0880471655        5.9354562599       16.6179004048
  C        -0.1460290399        8.0087591358       17.8803626657
  H         0.0887002178       10.0234791191       18.8331706846
  C         6.0629267454       15.0587043941       -3.4367774201
  N         6.1529067118       16.4046141972       -3.4505177920
  O         5.6885656146       18.0683569732       -2.0030140533
  H        -4.9678518133       13.1401661165       10.9054244197
  H        -5.1097725803       14.6613831029       10.1084455871
  C        -5.5990980814       12.9533911406        8.8008849652
  H         5.8908722595       13.9948860466       16.1092465118
  H         7.2226916817       12.8283460436       15.6435232340
  C         7.5277821316       14.6939333820       14.7471701925
  C        -0.5312939263        7.2488019641       19.0302739624
  S         6.3694425646       14.2113213461       -4.8659174868
  C         6.1702498845       17.2712066022       -4.6604009690
  H        -4.9042449539       12.9253143160        7.9252378541
  H        -5.8953273446       11.9371316559        9.1126923752
  C        -6.8786294220       13.6863362490        8.4214490410
  H         7.5163096510       14.6468801871       13.6963096369
  H         8.5069050216       14.2944063683       15.0661579137
  C         7.3774168123       16.0325678564       15.4438014292
  H        -0.3692366750        6.1592287935       19.0053988995
  C        -1.2767881417        7.6118848117       20.1872157776
  H         6.9629016366       16.8053462848       -5.3278831135
  H         6.3984289826       18.3184469273       -4.5730598709
  C         4.7964913096       17.1065666821       -5.3683335014
  H        -7.3017942179       13.0315814239        7.6631168255
  H        -6.5936195752       14.6407503391        8.0243505342
  C        -7.8439318436       13.8936162301        9.5598410416
  H         6.4538951443       16.5620304753       15.3126587807
  H         7.6318194350       16.0735265380       16.4533998932
  C         8.4012856580       17.0633990212       14.9552829542
  S        -1.6830221669        9.2213538480       20.5527426685
  C        -1.6431366109        6.5983643373       21.2275872430
  H         4.5969443215       17.9776978584       -5.9584017653
  H         3.9340637552       16.9637136060       -4.6779548659
  H         4.8009224093       16.2946940101       -6.1121051504
  H        -8.8656483502       14.2601280242        9.2654817934
  H        -7.9857989349       12.9256924891       10.0359033950
  H        -7.5574648704       14.6272094012       10.2977261689
  H         7.8749391297       17.6660058285       14.1963782270
  H         8.6149880898       17.7721765859       15.7117863575
  H         9.4025951496       16.7034221890       14.7119662089
  C        -2.3367438951        8.5823375478       22.0798549098
  N        -2.2067530891        7.2489725823       22.2436974130
  O        -1.3144955912        5.4564857040       21.2329583597
  S        -2.7942098616        9.6103524521       23.4365664598
  C        -2.6079793794        6.4913122419       23.4018162735
  H        -2.9547476973        5.5155729612       23.1163557240
  H        -3.4129336612        7.0098870220       24.0113430215
  C        -1.4204693402        6.1476311290       24.1681516332
  H        -1.5624589752        6.3072170262       25.2569248379
  H        -0.5510719395        6.8111023979       23.9981035340
  H        -1.2136953246        5.0653142603       24.0269097907
