352
i =
  H        -3.8970703782       12.6485275474       17.0304334771
  C        -2.8731269622       12.5813041216       16.5571859323
  H        -2.4751398135       11.7119829976       17.0060984695
  C        -2.0806742726       13.7739166411       16.9855560679
  C        -2.9794394032       12.2905123268       15.0716421247
  C        -2.2064670894       13.9222541201       18.5221408663
  H        -1.0442930494       13.6555850822       16.6139752202
  H        -2.6103692383       14.5779513497       16.4899708259
  H        -2.1075181978       12.0220755178       14.4629887086
  H        -3.7274627171       11.4674684518       14.9916101018
  H        -3.5323984749       13.0591511807       14.5438905165
  C        -1.4279914594       13.0278668002       19.4685192224
  H        -3.2155784620       13.7188464433       18.7957691565
  H        -2.0129616017       14.9403267785       18.8661072577
  C        -2.0346656898       12.9471074358       20.8758288049
  H        -1.3017081484       12.0279221386       19.0650256463
  H        -0.4098366185       13.3429370373       19.4880372841
  C        -1.0962353612       12.3302369896       21.9248710260
  H        -2.9785659275       12.3615754816       20.7852383246
  H        -2.3996789639       13.9136836751       21.1734377580
  C        -0.0095471429       13.3731352157       22.3403584823
  H        -1.6766537340       11.9495084549       22.7543733357
  H        -0.6213798012       11.4450155350       21.4650902208
  C         1.2577957928       12.7237223481       22.9816803521
  H         0.3894185392       14.0260968086       21.5378574923
  H        -0.4895971204       14.0285993571       23.0349100300
  C         1.6467380171       11.3934025184       22.3986009653
  C         0.8458743737       12.0894831037       24.2537083738
  C         2.4154809836       13.7312062570       23.2633163883
  C         1.3845023037       10.2953154355       23.1982305964
  C         2.3085608093       10.9270602481       21.2161774996
  C         0.8909106343       10.7292452457       24.4216020177
  C         0.4976841784       12.7758690115       25.3670026951
  H         2.7066167016       14.2478267845       22.3154207101
  H         2.0244649265       14.6277177458       23.7906940203
  C         3.6922878609       13.2319294730       24.0266853873
  S         1.9717638441        8.7261538177       22.5967802630
  C         2.2659700597        9.5454332760       21.0601224558
  H         2.7337962406       11.7365337021       20.5559905625
  C         0.4773211160       10.1414227466       25.5717032219
  H         0.3832212979       13.8378725797       25.3605048684
  C         0.1290382535       12.1806374126       26.5387063367
  H         4.1189539150       12.5527885736       23.3619782676
  H         3.4179775986       12.8075136704       25.0182269794
  C         4.6471832136       14.3700440718       24.3384795414
  C         2.6365140363        8.8451129894       19.7720015574
  C         0.1066803488       10.8377015614       26.6855279050
  H         0.4566972402        9.0947889555       25.7143424052
  C        -0.2530876167       12.6154334194       27.7886929721
  H         5.4695990997       13.9840685600       24.9905017052
  H         4.1064134213       15.1182672250       24.9712825330
  C         5.4120893721       15.0511198131       23.2677755260
  C         2.5760704529        7.4593132894       19.4586440345
  C         2.9865895017        9.7314620226       18.6303415290
  C        -0.1781382618       10.1968217886       28.0151979116
  C        -0.5123360454       11.5444453422       28.6473381304
  S        -0.4928293676       14.1113181637       28.4137169059
  H         5.9309773685       15.8425785965       23.8352830516
  H         4.7986918268       15.6065779522       22.5143553633
  C         6.6777311607       14.2904044494       22.6190819992
  N         2.1976479253        6.4350104783       20.2696123535
  C         2.8444714963        6.9539417291       18.1821729748
  C         3.1264612660        9.2545036858       17.2918601257
  H         2.9774476881       10.7373716582       18.7275199782
  C         1.0575331630        9.5357027057       28.7035211471
  C        -1.4552021688        9.2479457081       27.9261973824
  C        -0.9702692764       12.0670999548       29.9141153084
  C        -1.0394236067       13.4281084316       29.9473782258
  H         7.5226764623       15.0393818816       22.5805966006
  H         6.8512179237       13.4024827896       23.2469505659
  C         6.3835697963       13.6895634345       21.2440980853
  S         2.1889049561        4.9936499110       19.5380699442
  N         2.5850977133        5.6103212979       18.0521150615
  C         3.0843645980        7.7751539331       17.0350509647
  H         3.3216537592        9.9897546652       16.5435055669
  H         1.3838605436        8.7099472408       28.1776341975
  H         0.6376285237        9.3032617158       29.6745720465
  C         2.2566897142       10.4610673158       28.9161813508
  H        -1.2491631609        8.3187324795       27.4463996025
  H        -1.7675760784        8.9020982164       28.8724422629
  C        -2.6468614885       10.0394052125       27.3535771364
  H        -1.1783163658       11.4226018960       30.7017835263
  C        -1.3392400816       14.2830472688       31.1728534032
  H         5.4698835044       14.0619810446       20.8081846760
  H         6.1491531233       12.6513357718       21.3988304522
  C         7.5905963216       13.8193077482       20.2408255927
  C         3.3566482311        7.1680317938       15.7509188591
  H         2.6400857519       10.7704964274       27.9810429983
  H         1.9445960219       11.3743284021       29.3990119687
  C         3.2328043665        9.6118512632       29.8073614776
  H        -2.4616379423       10.5056129757       26.3595289986
  H        -2.8225148629       10.8432263679       28.0025143407
  C        -3.9253577404        9.1475209078       27.2682123735
  C        -1.4701312114       15.7317997630       31.1868042496
  C        -1.6071370469       13.6343948024       32.4950474066
  H         8.1927367099       14.6830964643       20.4713171262
  H         8.2610379275       12.9918334553       20.5232401471
  C         7.2011543547       13.7982504874       18.7389038305
  H         3.3964166070        6.0583586059       15.8293438972
  C         3.6599563233        7.6935391058       14.5646905270
  H         3.4775289627        8.7227761515       29.2424419418
  H         2.6469390229        9.3082773595       30.7366998222
  C         4.5060212228       10.3435447891       30.3224859027
  H        -4.0357118477        8.5616930590       26.3691389366
  H        -3.9175257763        8.5509843827       28.1430941168
  C        -5.0981712935       10.0902653311       27.3349186675
  N        -1.1967588256       16.4732769793       30.0552274739
  C        -1.8031078462       16.4640923798       32.3109856314
  C        -2.0301251983       14.4017160726       33.6077314131
  H        -1.3611994771       12.5649411457       32.6936483035
  H         6.2859214083       14.2575937490       18.5694735749
  H         7.9506890110       14.2248547285       18.0914105360
  H         7.2541067607       12.8340122120       18.2427120194
  S         4.0651518322        9.2939879231       14.1224625688
  C         3.8831594357        6.6887628018       13.5057504729
  H         4.5111139254       11.2173755621       29.7641276058
  H         4.2022879137       10.6067982498       31.3236549266
  C         5.8324150147        9.5139973914       30.2911619489
  H        -4.8578608631       10.9295464530       26.7526053857
  H        -5.2754143050       10.5055255648       28.3325961015
  C        -6.4315149019        9.5412800387       26.7638867427
  S        -1.1933139585       18.0420167261       30.4810928893
  N        -1.7331124052       17.8132526842       32.0161745686
  C        -2.0198108336       15.8619730100       33.5711806470
  H        -2.0424993650       14.0354464383       34.5507571465
  C         4.2338014093        8.7001011545       12.4730962090
  N         4.3169845815        7.3452496564       12.3456549911
  O         3.7177798464        5.4634429946       13.6869661683
  H         6.6267761991       10.0747876311       30.7677987864
  H         6.1469301937        9.3112311840       29.2497566082
  C         5.6797933949        8.2390749979       31.1821989126
  H        -6.2151271183        8.5021455616       26.3637455892
  H        -7.0996082195        9.2888139352       27.6043246995
  C        -6.9764465800       10.4837886460       25.6649412767
  C        -2.2933603012       16.6885176379       34.6785902651
  S         4.7977432808        9.5622570268       11.0796447326
  C         4.4026269315        6.6146119430       11.0938268258
  H         6.3040454386        8.2755511361       32.0807025061
  H         4.6282333990        8.1158985248       31.4535643837
  C         6.0445844900        6.9774771445       30.3943843607
  H        -6.2776987457       10.4338749597       24.8199064538
  H        -6.9437815260       11.5375889198       26.0096475265
  C        -8.3629970000       10.0450384056       25.2314940304
  H        -2.2438276274       17.7168171579       34.4648496384
  C        -2.7912429274       16.3936680194       35.9497808809
  H         5.0906019479        7.0346707791       10.3843486408
  H         4.8505074702        5.6226012704       11.3850012895
  C         3.0305269849        6.3205420654       10.4970279439
  H         6.8284681643        7.1978101435       29.6647110666
  H         5.1637589276        6.5932150317       29.8724927869
  C         6.6707541064        5.9205106823       31.1352151413
  H        -8.6702990656       10.6307552424       24.4056055600
  H        -8.3342529077        9.0083552563       24.8242539882
  C        -9.3471457889       10.2287862415       26.3799919173
  S        -3.1499987091       14.8790081996       36.6969745238
  C        -3.0363485188       17.5290556721       36.8829707068
  H         2.8867379908        5.3512492129       10.0405812858
  H         2.3256592000        6.4686052595       11.2979875315
  H         2.9002546645        7.1102044672        9.7421335780
  H         5.8762669540        5.3504777005       31.7233375625
  H         7.2920637098        6.3535453375       31.9208101222
  H         7.2088116111        5.2278557652       30.5654387981
  H        -8.9997272542       11.0888928225       26.9615250238
  H        -9.4408031342        9.3153603447       26.9417512451
  H       -10.3989475198       10.4657106160       26.0136453102
  C        -3.6199917105       15.7921650441       38.1497586966
  N        -3.5114432475       17.1187985619       38.0674315821
  O        -2.8523959007       18.6559570571       36.4795188198
  S        -4.2921342860       15.0800881570       39.6287166982
  C        -3.8107272269       18.0452969712       39.1690803433
  H        -4.0130105314       19.0096087479       38.7531062751
  H        -4.7826778131       17.6954356966       39.6832402116
  C        -2.6319742350       18.1758523653       40.1310516135
  H        -2.8807320150       18.9870247467       40.8030921019
  H        -2.3761750108       17.2799316571       40.7208635243
  H        -1.7221434205       18.5923097437       39.6500424685
  H         7.3618801102       10.0588509268        3.2088314463
  C         8.3077921460        9.4654648624        3.3325502472
  H         8.0479497012        8.4810376380        3.5911570269
  C         9.0565273866       10.0820358084        4.5123115653
  C         9.1225155083        9.4501325746        2.0594738905
  C         8.2415455232       10.3584601460        5.8079968296
  H         9.9295180927        9.4683434348        4.7295639873
  H         9.3471414189       11.0917186155        4.2212369634
  H        10.0872821683        9.9937807615        2.0623651864
  H         8.4825095113        9.9749862269        1.2277750316
  H         9.2507842203        8.4570455275        1.6041827423
  C         7.5947159434        9.0806466986        6.4709128999
  H         8.8936950666       10.8375335034        6.5886027554
  H         7.4245494986       11.0432265140        5.5128429473
  C         6.7106699605        9.3901424935        7.7191086080
  H         8.3494293937        8.2508705701        6.7229896089
  H         6.9925994229        8.6352882278        5.7523630787
  C         5.4567606393       10.3134043667        7.4685751689
  H         7.2759692500        9.7633103140        8.4984465604
  H         6.4479543578        8.3690277169        8.0097822137
  C         4.2940011019        9.5282759152        6.8866942306
  H         5.2892287922       10.8800573699        8.3835473153
  H         5.8199154214       11.0696573687        6.7678991220
  C         2.9316162063       10.3836515124        6.7681821101
  H         3.9887447295        8.7218917686        7.5217767107
  H         4.5661284544        8.9538278138        5.9547061698
  C         3.3789500927       11.6871417730        6.2415405122
  C         2.3888089795       10.9633668756        8.0787961959
  C         1.8552353301        9.6967971511        5.8399645850
  C         3.1017915529       12.7695699549        7.0732883473
  C         3.9251083344       12.1087261393        5.0049124181
  C         2.4667204668       12.3341863637        8.2454115892
  C         1.9244564591       10.2291375005        9.2091437098
  H         2.3008013513        9.1105570134        5.0065486623
  H         1.3904190646        8.9874241438        6.5684782866
  C         0.8131251384       10.7665542841        5.4245998869
  S         3.5418908978       14.2913227135        6.4139578481
  C         4.0112088763       13.4783385733        4.9749129490
  H         4.1688034425       11.4063187375        4.2501213017
  C         2.1499162644       12.9128933960        9.4200035518
  H         1.8360279111        9.1814749306        9.1080793827
  C         1.6600134748       10.8494812713       10.4294050790
  H         1.1784051105       11.5468386272        4.7703572935
  H         0.5676174571       11.2819348976        6.4070910093
  C        -0.4733156458       10.0740256908        4.8534566497
  C         4.4607371025       14.1757018195        3.7508647597
  C         1.7971759790       12.1785242174       10.5428761194
  H         2.0821518307       13.9867464345        9.6144825852
  C         1.3146316231       10.4573112776       11.6993622691
  H        -1.2840864310       10.7526591957        4.8251328383
  H        -0.8030574901        9.3497355464        5.5846598257
  C        -0.1661959976        9.4381513463        3.4973964002
  C         4.5065519394       15.5648948281        3.5702267526
  C         4.9008061983       13.4082529144        2.5879143142
  C         1.5977752333       12.8906303170       11.8576456120
  C         1.3329093201       11.6049129036       12.5344651678
  S         0.9906162681        8.9938450080       12.5062280973
  H         0.2003191173        8.4089599427        3.6623285256
  H         0.6575301629        9.9058581995        3.0104351842
  C        -1.3822540973        9.5125019338        2.5580995353
  N         4.0736460951       16.4548252189        4.5551965845
  C         4.7751577203       16.2277035213        2.3860307122
  C         5.1928988371       14.0347950020        1.3732105669
  H         4.6786207932       12.3796660717        2.5459173485
  C         0.3019680327       13.7664135847       11.7785592408
  C         3.0190917883       13.5683088588       12.0758602176
  C         0.9410190346       11.2464347918       13.8609929513
  C         0.6355976221        9.9341721897       13.9511152664
  H        -2.2229901210        8.9498027091        2.9030086135
  H        -1.7294660725       10.4829486106        2.7426412784
  C        -1.1897824197        9.1805117142        1.0649621367
  S         4.1453086351       17.9136286275        3.9505325316
  N         4.4999603018       17.6421491182        2.3857211018
  C         5.2206513401       15.5153901406        1.2371297140
  H         5.3398803898       13.3984444911        0.5064163775
  H         0.3447268103       14.7780049369       11.3078000673
  H        -0.0501470908       14.0213430717       12.7479110440
  C        -0.8736540410       13.0246476685       11.1205231369
  H         3.7527518493       12.9474295849       11.5150164604
  H         2.9569316081       14.5296087107       11.5908407976
  C         3.3519613047       13.6118433235       13.5479314846
  H         0.9709505249       11.9915129568       14.6672879533
  C         0.2237655798        9.2675188010       15.3085601310
  H        -2.0771844138        8.6019379876        0.8045642497
  H        -0.2335739881        8.6886439251        0.8766235585
  C        -1.1762615384       10.4163374229        0.1938586240
  C         5.3036790839       16.3794758033        0.0841425546
  H        -0.6544114836       13.0287521202       10.0695694210
  H        -1.0759672148       12.0194799923       11.5264857752
  C        -2.2319989400       13.7081901749       11.0957136677
  H         3.3936036071       12.6194973757       13.9942320882
  H         2.5527527278       14.1812416803       14.0751938595
  C         4.6887592906       14.3731763911       13.8365178763
  C         0.0865412686        7.8700712646       15.5398120373
  C        -0.1407857814       10.0665349492       16.5857335735
  H        -2.1710484964       10.8217939325        0.1723023171
  H        -0.5958458549       11.1550148501        0.6288896331
  C        -0.7467146794       10.2162410259       -1.3068238395
  H         5.1424635483       17.4408687216        0.2214288098
  C         5.5694718305       16.0184412021       -1.2159263208
  H        -2.1466813735       14.6337769698       10.5561216907
  H        -2.4518631898       14.0014963076       12.0908644222
  C        -3.3442282482       12.7807769268       10.5873915296
  H         4.9636647556       14.9434017430       12.9632704696
  H         4.3552473172       15.1375429411       14.5344829891
  C         5.9040148957       13.5315655328       14.1631556717
  N         0.1400514176        6.9587503159       14.4968948582
  C        -0.2654806195        7.1831632070       16.7572166934
  C        -0.4186083891        9.4092327558       17.8064831291
  H        -0.0646070190       11.1551598337       16.5352580570
  H        -0.9720363734       11.0051583656       -1.9906980490
  H        -1.2025659769        9.2281806401       -1.5155912683
  H         0.3221017633       10.1209127029       -1.2595913433
  S         6.0973773817       14.4184966040       -1.8200142414
  C         5.4511073519       17.0133902305       -2.2245166850
  H        -2.8510687033       12.0406190579        9.9409012949
  H        -3.8423637128       12.2616534331       11.4158487763
  C        -4.4557455311       13.4572035077        9.8013411605
  H         5.8334436113       12.6645637974       13.5733645711
  H         5.8504726024       13.1273962046       15.0924919947
  C         7.2535787412       14.2353608920       14.0719267143
  S        -0.0056225621        5.4407824214       15.0597447761
  N        -0.3167701514        5.7985743143       16.6078421632
  C        -0.5166209140        7.9105404160       17.9590460217
  H        -0.5853895233       10.0188824731       18.6654196455
  C         5.8894144671       15.1800078797       -3.4321969739
  N         5.6752080844       16.5108665267       -3.4471594342
  O         5.1188833256       18.2199437956       -1.9712248869
  H        -4.9483767362       14.2238834860       10.3666373836
  H        -4.0170029717       14.0223656377        8.9851207029
  C        -5.4494153002       12.4542341391        9.1744062760
  H         7.9271822332       13.4294223096       13.9094595999
  H         7.2929076298       14.7438464366       13.1528751690
  C         7.5978818655       15.2753956888       15.1669861642
  C        -0.7930405607        7.1511168533       19.1144102270
  S         6.4868656767       14.4624852954       -4.9995442663
  C         5.6020743248       17.3712778466       -4.6709507874
  H        -5.0104954840       11.8424543595        8.4096233633
  H        -5.8441441787       11.7309002320        9.8314208330
  C        -6.5409457429       13.3091175159        8.6604236687
  H         8.0340268051       14.8269394367       16.0300349780
  H         6.7362935675       15.8308131854       15.5040237326
  C         8.6575335509       16.2856743562       14.7134466095
  H        -0.7778923597        6.0829906734       18.9112974289
  C        -1.1277139280        7.4078356003       20.4339251598
  H         6.3402109389       17.1551251498       -5.3678797405
  H         5.5172797244       18.3868362913       -4.5132820153
  C         4.3903637546       17.0993101615       -5.4479532626
  H        -6.9594027784       12.7405956645        7.8445050701
  H        -6.1557980446       14.3125656077        8.3244694469
  C        -7.6229754909       13.7085907905        9.5853512888
  H         8.9425634570       16.7640880511       15.5914378704
  H         9.4879870945       15.6687969014       14.3815913275
  C         8.2655867926       17.0813192938       13.5090015690
  S        -1.3428753080        8.9943969437       21.1238159394
  C        -1.2746673548        6.2371036142       21.3568219650
  H         4.3019010875       16.0134274924       -5.7410510044
  H         4.3929145018       17.7349234993       -6.3959612312
  H         3.5258390143       17.2693959544       -4.7975714586
  H        -8.4636026603       14.1204190887        9.0283945676
  H        -7.9800131343       12.8010310188       10.2567362342
  H        -7.3937812844       14.5144315939       10.3004667105
  H         8.8240413422       17.9760791485       13.4696745355
  H         8.4555736900       16.5093856975       12.6384180565
  H         7.1978896505       17.3684907024       13.4377087328
  C        -1.8336845082        8.1050786590       22.5772336600
  N        -1.7378386974        6.7239016503       22.5276464369
  O        -1.0352837273        5.0798185391       21.1050134171
  S        -2.7472187889        8.8598517912       23.8987780915
  C        -2.1372066072        5.9034314793       23.6137753337
  H        -2.3314023386        4.8209504750       23.3939524217
  H        -3.0316463931        6.2795864809       24.0356517165
  C        -1.0243631080        5.8884684142       24.6743471277
  H        -1.1831879125        6.7284869861       25.4217921990
  H        -0.0454813882        5.8665402484       24.2421610584
  H        -1.2039570594        5.0202295048       25.2686700235
