352
i =
  H        -3.2105254120       15.1219744633       16.0975102881
  C        -3.1331025398       14.0175308316       16.2360195574
  H        -4.1425740297       13.6759525225       16.4676299973
  C        -2.1999105919       13.4848063449       17.2905751899
  C        -2.8164239201       13.7044711674       14.7884071851
  C        -2.4199286955       14.0936129649       18.6767110343
  H        -2.2297182342       12.2971591632       17.1782812739
  H        -1.2672836462       13.8049429604       16.9117642589
  H        -3.5758554408       14.1253861442       14.1037054836
  H        -1.7541502800       13.7805963052       14.6777655515
  H        -2.8600556790       12.6789268216       14.5318581957
  C        -1.4024749856       13.6823309853       19.7209013865
  H        -3.3741553078       13.5891472660       18.8861795988
  H        -2.6032362499       15.1353640844       18.5165600529
  C        -1.9924276361       13.6613737191       21.0670766681
  H        -1.0882155453       12.6302269547       19.4699290784
  H        -0.5451501527       14.3812418285       19.5927866216
  C        -1.1163230045       12.9543191788       22.1000420564
  H        -2.9771515018       13.2630287654       20.9159232460
  H        -2.2101217109       14.6492379233       21.3070761882
  C         0.1197538168       13.8075286004       22.4452250532
  H        -1.7476219547       12.7409790691       23.0057619639
  H        -0.7348588223       12.0619736850       21.6698244300
  C         1.2027637346       13.1070653518       23.1915067243
  H         0.6100025174       13.9399273803       21.4531598359
  H         0.0129162583       14.7650417831       22.8289340803
  C         1.6072201665       11.7300212583       22.5739015730
  C         0.7983637083       12.4169772901       24.4170501415
  C         2.4274269976       14.0563217658       23.3336841385
  C         1.3181231188       10.6522566385       23.3677094696
  C         1.9796920836       11.2816314629       21.2683605724
  C         0.8683872792       11.0540110610       24.5721112571
  C         0.2887503513       13.0028636213       25.5880763612
  H         2.5830591295       14.4948704072       22.3456049420
  H         2.3309390753       14.8594917159       24.0180767590
  C         3.6308730124       13.3307793042       23.8706941129
  S         1.6243567753        9.1231092647       22.6721051337
  C         1.9645192605        9.9574687597       21.1472910931
  H         2.1952975296       12.0373898726       20.3988183277
  C         0.5539133441       10.5143926473       25.7625238798
  H         0.2804822759       14.0377854177       25.6176611744
  C        -0.1202620615       12.4194203569       26.7779497807
  H         3.9537352715       12.5380151251       23.2462667484
  H         3.3678178284       12.7721813545       24.7847298149
  C         4.8488259574       14.2785403615       24.0742064383
  C         2.3746343577        9.2292188508       19.9675201957
  C        -0.0100154958       11.0880487037       26.9323471678
  H         0.7106962923        9.3964139255       25.7420847504
  C        -0.5584586168       12.8075690158       27.9696486340
  H         5.5331389293       13.6836938628       24.7278210525
  H         4.5585257367       15.2279348727       24.6063649427
  C         5.7072037066       14.5744840399       22.8466060029
  C         2.2687512846        7.8087277993       19.8390458327
  C         2.8793514293        9.9844067148       18.8509946345
  C        -0.3607071250       10.3936371282       28.1735252401
  C        -0.7273475963       11.7417146626       28.8122204653
  S        -1.1037066474       14.3218561149       28.7197456457
  H         6.4360379008       15.3758766547       23.0909586571
  H         4.9829276192       15.0585267362       22.1758068835
  C         6.3391495563       13.2713207496       22.3429578492
  N         1.9270871332        6.8944929048       20.7365096833
  C         2.5751333247        7.2400494636       18.5946281371
  C         3.0240117903        9.4510357399       17.5460005666
  H         3.2151172796       11.0157647415       18.8912591301
  C         0.7110865525        9.6193440238       28.9236852289
  C        -1.6346913322        9.4803526320       27.9608574685
  C        -1.2329072193       12.1147473796       30.0453761407
  C        -1.4224193135       13.4570303319       30.1860588407
  H         6.7490194429       12.5655757084       23.1861766024
  H         5.5438583649       12.5198134109       21.9789118664
  C         7.3194748107       13.5083182898       21.2441600713
  S         2.0163603740        5.4510434849       20.1147570369
  N         2.6040046169        5.8504023906       18.6219188910
  C         2.8108355477        8.0383856200       17.3890190852
  H         3.3947898028       10.0630107127       16.8352732856
  H         0.9878794212        8.8544718113       28.2370866386
  H         0.4309370246        9.2624637909       29.8973046135
  C         1.9738659831       10.3636213246       29.2153163641
  H        -1.2331374430        8.6883007017       27.3179441579
  H        -1.7481779418        9.0224441884       28.9789700486
  C        -2.8370159450       10.2513243930       27.5027568218
  H        -1.2777410972       11.3919452211       30.7692676694
  C        -1.6730676509       14.1156897898       31.4947617927
  H         8.0246769138       12.6104470431       21.4238700906
  H         7.8042741400       14.4078421814       21.6276059648
  C         6.6737851952       13.6414291185       19.8307020433
  C         3.0324729954        7.3202967423       16.2005653979
  H         2.3663837581       11.0729310495       28.4060513209
  H         1.7451375623       11.2278196710       29.9347362997
  C         2.9841724454        9.3725051742       29.8456220164
  H        -2.6037226520       11.0001576560       26.8075592174
  H        -3.1460662334       10.9040918467       28.3448663001
  C        -3.9428278106        9.3226118242       27.0758305129
  C        -1.8133910406       15.5301623436       31.7783151032
  C        -2.0184762381       13.2909065444       32.6553602721
  H         5.9863438685       12.7310671660       19.7347842861
  H         6.1321934957       14.6020086902       19.6288256499
  C         7.8120826095       13.6740412821       18.8124510766
  H         2.8550568533        6.2863841772       16.3888613979
  C         3.4776626799        7.5905636818       14.9691573033
  H         3.2701704277        8.6325176673       29.0504197474
  H         2.3909211629        8.8940041697       30.6696269494
  C         4.2261619656       10.1841611227       30.3668979700
  H        -3.8645303099        8.9456163763       25.9974453931
  H        -4.2979334948        8.5268201676       27.8211235970
  C        -5.2722619109       10.2207092745       26.8240378060
  N        -1.5791692071       16.4823240592       30.8640026605
  C        -2.0925004016       16.0325463455       32.9808959943
  C        -2.4184575807       13.7702161477       33.8955814039
  H        -1.9720296995       12.2537542958       32.5344095515
  H         7.6034159413       13.5751049254       17.7350806602
  H         8.4199231104       14.5172769473       18.8594695584
  H         8.4764711218       12.9295109473       18.9946798253
  S         3.9406500726        9.1773808960       14.3613191345
  C         3.3710915349        6.5681560032       13.9067757240
  H         4.4027495455       11.0585245805       29.7986282854
  H         4.0606058172       10.5907317012       31.3553189552
  C         5.3606646353        9.1845569601       30.3557303933
  H        -4.8226477694       11.0884834883       26.3765111697
  H        -5.5297374043       10.3776376756       27.8333232087
  C        -6.4620000434        9.6544077741       26.0475804828
  S        -1.6096924966       17.9253490975       31.5564660303
  N        -2.0647335280       17.4596079200       33.0232575528
  C        -2.3221866581       15.1793527808       34.1005547262
  H        -2.5418670658       13.0193445766       34.5236942558
  C         4.0247511470        8.4051992764       12.7616165550
  N         3.8592918289        7.0848320287       12.7926843914
  O         3.2977863701        5.3695814429       14.1374204520
  H         6.0971188087        9.7654601806       30.7147859595
  H         5.5865734961        9.0012286347       29.3898570454
  C         5.1932420412        7.9118741880       31.1141848736
  H        -6.2359046520        9.1458661921       25.1365074017
  H        -7.0830635954        8.8578036813       26.4868443964
  C        -7.3051939696       10.8046259328       25.5704961683
  C        -2.7043239107       15.7713943127       35.3339328155
  S         4.5359676883        9.3423769621       11.3297370950
  C         3.8400568614        6.3024988643       11.5810374153
  H         5.3233451857        8.1082526398       32.0843688820
  H         4.2043472275        7.3688417547       30.9099606863
  C         6.1129123538        6.8189024398       30.6857047845
  H        -6.6846296708       11.4727668446       24.8423922505
  H        -7.4817479005       11.4389265424       26.4085619450
  C        -8.4877830419       10.2179880546       24.8109032125
  H        -2.2958335558       16.8342447278       35.2839859638
  C        -3.3520696217       15.4162673909       36.4725809577
  H         4.6901643788        6.6139081352       11.0350671218
  H         4.2482737291        5.3790499461       11.7931385451
  C         2.4587330021        6.2645646516       10.9452493069
  H         7.1980590322        7.0510715413       30.8157190262
  H         5.9847377048        6.6327000732       29.5928787308
  C         5.9013844795        5.5639115295       31.5432786545
  H        -8.6697291639       10.8036343978       23.8626636502
  H        -8.2163905252        9.2212462401       24.2845755421
  C        -9.6469663546       10.1358217835       25.7513654224
  S        -4.0934662196       13.9429725759       36.8044425053
  C        -3.4395311484       16.4163523647       37.5413476827
  H         2.5909412400        6.4382861919        9.8176429241
  H         1.9418737114        5.3040880371       11.2097390304
  H         1.7091227895        6.9309612634       11.3468717100
  H         4.9655651369        4.9158958142       31.2421694993
  H         5.6086328722        5.8463915390       32.6439989636
  H         6.6322124061        4.7474054168       31.3699230959
  H        -9.3346429734        9.5249413570       26.6285986612
  H       -10.6357021419        9.8051274355       25.4122254686
  H        -9.9133404009       11.1044708776       26.1916900297
  C        -4.4676453498       14.6373752978       38.4113246424
  N        -4.1253699663       15.9643816907       38.6424438126
  O        -3.0708998593       17.5586264469       37.4299931626
  S        -5.1351773175       13.7845909313       39.7244421169
  C        -4.2260800763       16.7704208795       39.7082919232
  H        -4.5078535487       17.8058505975       39.4628444715
  H        -5.0912159126       16.4852665877       40.3435806687
  C        -2.8607607301       16.8678395386       40.4679746441
  H        -2.4269306502       15.8961580504       40.5418202656
  H        -2.1073171165       17.2635998865       39.8116012737
  H        -2.9416391103       17.3980309489       41.4588466519
  H         7.7993347557       11.1018863580        3.5909681021
  C         8.2400468538       10.1028107319        3.7242663135
  H         7.4473906637        9.3191994360        3.5869869571
  C         9.1978097643       10.0344048157        4.9642226229
  C         9.1136428384        9.7785608660        2.4388328265
  C         8.3972162874       10.3521155019        6.2379369704
  H         9.6314833343        8.9735827145        5.0682614340
  H         9.8670941648       10.9485317890        5.0671947051
  H         8.4331872399        9.3768791403        1.5767359391
  H        10.0029728650        9.2053636699        2.7351854267
  H         9.3443064890       10.8560716652        2.0528150231
  C         7.6742180815        9.1923796122        6.8485825191
  H         9.1781270461       10.7349245337        6.8759482757
  H         7.6134281290       11.0947167086        5.8495580536
  C         7.0003643761        9.6276947053        8.0874698262
  H         8.4996185284        8.4533216137        7.0655134368
  H         6.9658501578        8.8914493644        6.1550649830
  C         5.7577910761       10.5425693096        7.9303133304
  H         7.4979748680       10.0170030074        9.0438505330
  H         6.6330675893        8.6659199939        8.5473546549
  C         4.5679262601        9.8076357511        7.3294529315
  H         5.5154208580       11.0752516816        8.7906830933
  H         6.0085517332       11.3849286691        7.2933134966
  C         3.3567548975       10.6620740147        7.1348663005
  H         4.2466109440        8.8985578055        7.8694713963
  H         4.8701269521        9.1795046120        6.3671251587
  C         3.5292139488       11.9756214199        6.4265301287
  C         2.8019748100       11.3947512226        8.3113673603
  C         2.2297394419        9.9183598535        6.3634014477
  C         3.2085576905       13.1059825874        7.1651330404
  C         3.9856519018       12.3413010315        5.1610864134
  C         2.7073827533       12.7144208363        8.4003656252
  C         2.2524787303       10.7617858261        9.4157885783
  H         2.7068125746        9.5249101342        5.4201980600
  H         2.0627358574        9.0009016954        6.9201799601
  C         0.8933540789       10.6351461699        6.1217871668
  S         3.4130302046       14.6270413802        6.2626418051
  C         3.9417881354       13.6070602093        4.8762870693
  H         4.3121071837       11.6077304417        4.5028449540
  C         2.1352098042       13.2675367996        9.4501336892
  H         2.4247400359        9.7057613762        9.4144495979
  C         1.6571487923       11.2452240977       10.5280204179
  H         1.2235924262       11.5863432102        5.5215871409
  H         0.4123379742       10.9242939196        7.1363782792
  C        -0.1163439882       10.0999484915        5.1869416340
  C         4.3111131421       14.2469435087        3.5884949456
  C         1.6348901018       12.6197444169       10.5761008556
  H         2.0382123643       14.3351068281        9.3483234347
  C         1.0894260181       10.7837261758       11.6800963716
  H        -1.0788010369       10.8354684456        5.0932339145
  H        -0.4957964550        9.0758771787        5.3325754331
  C         0.3525202333       10.1818264545        3.6454757202
  C         4.3561712311       15.7071734050        3.3870839165
  C         4.6290471322       13.4520051301        2.4212281029
  C         1.1541263156       13.2994496734       11.8666410741
  C         0.8260891138       11.9335975724       12.4448824265
  S         0.8432556273        9.3400701250       12.4507407373
  H         1.1505214225        9.3054357501        3.6472603894
  H         1.1079057720       10.9491729751        3.4820069375
  C        -0.7661402252       10.0190323853        2.6986044585
  N         4.0395135617       16.6557055271        4.2594738931
  C         4.5946362902       16.1985662873        2.0683265756
  C         4.9077945775       14.0135196492        1.0810628319
  H         4.7167296425       12.3914008719        2.5707587146
  C        -0.1105453952       14.2723216395       11.6492182216
  C         2.2772383826       13.9545373965       12.5971809662
  C         0.2381618923       11.5792801829       13.6709813149
  C         0.3377749129       10.2192816466       13.8716548373
  H        -1.5905223246        9.6040128939        3.2179789752
  H        -1.0606485318       10.9466946356        2.3086883806
  C        -0.4373506737        9.0860079990        1.4199447710
  S         4.0811061595       18.1372344762        3.5760945614
  N         4.3808807158       17.6537583533        2.0904509816
  C         4.8648316552       15.4754817517        0.8681098234
  H         5.1485337659       13.3367790928        0.3443179519
  H         0.2608704182       15.2202717886       11.2184122394
  H        -0.5394950407       14.5143936805       12.5267022782
  C        -1.2066604744       13.5402341452       10.9829221941
  H         2.9231855540       14.3873079940       11.8360604283
  H         2.0736009149       14.7425047914       13.2991445092
  C         3.2315793743       13.0020657550       13.3836409262
  H        -0.0570638548       12.3103839482       14.3558333683
  C        -0.0116089001        9.5209249052       15.1139932514
  H        -0.7167860473        8.1304081873        1.9151328790
  H         0.5551622267        9.3059472595        1.2049259164
  C        -1.2710276082        9.3399422574        0.1989305043
  C         5.1054373536       16.2899362878       -0.2960638183
  H        -0.9936155991       13.0716764130       10.0759632889
  H        -1.5756651865       12.7599935174       11.5797031353
  C        -2.6171105791       14.2541706659       10.7219066905
  H         3.6757857229       12.4038617299       12.7625327116
  H         2.8489541765       12.4844487413       14.1783875409
  C         4.3548238658       13.8308401568       13.9583049582
  C        -0.0432754224        8.0618497327       15.3002351928
  C        -0.2262451716       10.2958100050       16.3593427425
  H        -1.6358313274        8.3344915588       -0.0367252617
  H        -2.2032979200        9.8972013945        0.4834463281
  C        -0.4001357404        9.8646917828       -0.9675964353
  H         5.0215592138       17.3681032791       -0.1869106510
  C         5.4168725939       15.9042994329       -1.5752494598
  H        -2.2504630610       14.9765220876        9.9111572235
  H        -2.8111866621       14.7027897289       11.6910818015
  C        -3.6309256319       13.3488861580       10.2046848376
  H         4.7130255413       14.6108632964       13.2839608670
  H         3.8760710505       14.5500629559       14.6225075762
  C         5.5059635785       13.0069863433       14.4628592717
  N         0.1918553509        7.1128511632       14.3944099340
  C        -0.2312838578        7.5695432925       16.5784497343
  C        -0.5378033121        9.7109684199       17.6273792766
  H        -0.2009327851       11.4433104616       16.3054947549
  H        -0.9806247329        9.8743282962       -1.8922503383
  H         0.4963816151        9.3993028145       -0.9389983772
  H        -0.1440263319       10.8711837568       -0.9188579685
  S         5.7343760727       14.2970279250       -2.1869737096
  C         5.4694977269       17.0091092622       -2.5316003971
  H        -3.2100553277       12.4550019274        9.8456924368
  H        -4.3171815308       12.9924455659       10.9721197468
  C        -4.6353167817       13.9030451603        9.1085026940
  H         5.6923161115       12.1830408044       13.8295315666
  H         5.2705840853       12.5640850026       15.4836573172
  C         6.8986559288       13.7415970751       14.5805072756
  S         0.0815132029        5.6435190571       15.0802849452
  N        -0.2123213625        6.1138031384       16.5536331967
  C        -0.5338800606        8.2902924259       17.7822757842
  H        -0.7259356077       10.4947009571       18.3493301787
  C         6.0205492211       15.1977127998       -3.7005093981
  N         5.8652633360       16.5879289665       -3.7164017576
  O         5.3476743681       18.2171308167       -2.2780218823
  H        -4.7996153968       14.9232756046        9.3676245492
  H        -4.0549305700       14.0119284196        8.1939334213
  C        -5.7080748926       12.8753270835        8.7415243567
  H         7.5212089847       13.1658256460       15.2327025882
  H         7.4324179468       13.6978756321       13.6061207453
  C         6.7511600635       15.1919555202       15.1378554536
  C        -0.9097678647        7.6751094718       19.0410724378
  S         6.2125419514       14.4575095581       -5.2555316513
  C         5.9205272163       17.4693658190       -4.7953841395
  H        -5.5591067333       12.4802710480        7.7546094189
  H        -5.5188640583       11.9340160574        9.2153447687
  C        -7.1081346147       13.4929118673        8.8212287935
  H         7.4110811696       15.1399886624       16.0519139769
  H         5.7183268917       15.2946262014       15.4568077146
  C         7.2502206054       16.2502445080       14.2464099398
  H        -0.6097514573        6.6211851715       19.0943171510
  C        -1.3143546264        8.1274795103       20.2855602446
  H         6.5670664015       17.2091016701       -5.5388193358
  H         6.3869082265       18.4515792826       -4.5721013342
  C         4.5506424519       17.6586654075       -5.4362305525
  H        -7.7744853525       13.0896370802        8.0325110259
  H        -7.0139533330       14.5595128355        8.7242812105
  C        -7.5905277529       13.2796793199       10.2508078507
  H         8.1623617538       15.9390456715       13.9158321729
  H         6.5906168851       16.2366509335       13.3894361190
  C         7.2547895543       17.6261065606       14.9790728221
  S        -1.8421007535        9.6499989978       20.7033613374
  C        -1.5346693645        7.1167824827       21.4004447313
  H         3.9400789662       18.3126960902       -4.8193073563
  H         3.9532392605       16.8257317695       -5.7429736682
  H         4.7637556417       18.1011961648       -6.4026559779
  H        -8.6045870931       13.2648963060       10.3001322275
  H        -7.1904814782       12.2797517023       10.5872018997
  H        -7.1875218093       13.9716552304       11.0758717631
  H         8.2595129793       17.9887148506       15.3888640684
  H         6.7298441040       18.4545245478       14.2862630077
  H         6.6305693546       17.6584185320       15.9838689530
  C        -2.2518142024        9.0724333525       22.3772169664
  N        -2.0745804879        7.7158221816       22.5106759506
  O        -1.3627971729        5.9297195744       21.2906081390
  S        -2.9622664601        9.9088106038       23.6663790828
  C        -2.2126699149        6.9163057886       23.6899177662
  H        -2.7009615423        5.9675207241       23.5361375790
  H        -2.9092284233        7.4684520320       24.3474588627
  C        -0.8931774735        6.6896427841       24.4551514807
  H        -0.0581242226        6.3409467805       23.8120064823
  H        -1.0264829925        5.8168318792       25.1855793405
  H        -0.6703606455        7.5152622921       24.9547244633
