352
i =
  H        -4.0807264396       14.5275865000       16.3121828820
  C        -3.8518746335       13.4634688780       16.2820939117
  H        -4.6263635712       12.7535670689       16.6834207337
  C        -2.6278497534       13.6067474941       17.2313544318
  C        -3.4498354614       13.0286901458       14.8932148042
  C        -3.0070217581       13.7554170219       18.6688042184
  H        -2.2174306205       12.5834928583       17.1347428841
  H        -1.9360636153       14.3612133294       16.8491811534
  H        -4.2735688681       12.9516119548       14.2594853201
  H        -2.8209192086       13.7486977555       14.4159202907
  H        -3.0061097829       12.1064871186       14.9951226540
  C        -1.8396910316       13.6749067433       19.6567584797
  H        -3.6527153409       12.8692777474       18.7359165626
  H        -3.5979133338       14.6391890523       18.8569151556
  C        -2.3485073330       13.6024748308       21.0733032226
  H        -1.1642040349       12.9658232453       19.4495317490
  H        -1.2694429413       14.5381781381       19.6170110069
  C        -1.3234986993       12.9832344038       22.0485074355
  H        -3.2782795508       12.9948842712       20.9609807149
  H        -2.6854991139       14.5367969409       21.1926377909
  C        -0.0455876536       13.8181780476       22.1769684010
  H        -1.8197721458       13.0771116018       23.0631310297
  H        -1.1755283214       11.9689106478       21.7016484511
  C         1.0716682927       13.1102245013       23.0674422325
  H         0.4483357279       14.2046796158       21.2857464925
  H        -0.2827231468       14.7733596256       22.6544098058
  C         1.4208345275       11.7731301710       22.4330329977
  C         0.5858796276       12.4050002487       24.3419323495
  C         2.4053916907       13.7990164274       23.2335973838
  C         1.1785692426       10.6702877250       23.2451135894
  C         1.9705454366       11.4343427029       21.2247844919
  C         0.5310703186       11.0389222377       24.3679299154
  C         0.2481957000       13.0021838029       25.5588414249
  H         2.7488911358       14.0798032288       22.2551353158
  H         2.2789215543       14.5867495982       23.8986208487
  C         3.5589004573       13.0030918760       23.8402683576
  S         1.5695226890        9.1598073877       22.5601586218
  C         2.0779804451       10.0261335541       21.0975459090
  H         2.2016983439       12.3337021856       20.6746514803
  C         0.0809493727       10.3830687187       25.5359683857
  H         0.3877201732       14.0222485047       25.5473685159
  C        -0.2523898300       12.3776204478       26.6486499255
  H         3.9745593506       12.2486027396       23.0815616727
  H         3.3616767336       12.4534508211       24.7144661985
  C         4.9292896119       13.6420028109       23.9618753578
  C         2.4394283595        9.2395125536       19.8960698491
  C        -0.3407291544       11.0319074968       26.6203842938
  H         0.2852113621        9.3249360422       25.5303233545
  C        -0.6739722184       12.7633568995       27.9497279716
  H         5.5224524268       12.9988716290       24.5595392501
  H         4.7189760862       14.5453154874       24.3544353164
  C         5.5710597767       13.8592163027       22.6709580601
  C         2.4670513218        7.8692037676       19.6327540227
  C         2.7928492436       10.1045342618       18.6964888052
  C        -0.5614778392       10.3583863584       27.9407130620
  C        -0.7745122054       11.6264422192       28.7457175319
  S        -0.7766501509       14.2850978159       28.7648217253
  H         6.2038804884       14.6831089726       22.7758072417
  H         4.9856517312       14.2857292073       21.9141042727
  C         6.4475107257       12.6906275671       22.1697897625
  N         2.1329472301        6.8678279707       20.6050488974
  C         2.6970687852        7.2702505676       18.4274809059
  C         3.0954312681        9.5217596827       17.5173973126
  H         2.8495699265       11.2094857685       18.9271143751
  C         0.4442917702        9.5398375003       28.6513215339
  C        -1.8592602016        9.4807058852       27.7436255333
  C        -1.0324297549       12.0205659679       30.0541397997
  C        -1.0967601858       13.4038083928       30.2341285916
  H         7.1325059152       12.4946442425       22.9199814433
  H         5.7490154363       11.9794536206       22.0028798031
  C         7.1314825294       12.8629604008       20.8020239664
  S         1.9970613747        5.3812449120       19.8603347148
  N         2.4763455763        5.8923458682       18.4311795081
  C         3.0514899552        7.9786135630       17.3533459461
  H         3.2827742458       10.0991125522       16.6413017201
  H         0.7172289182        8.8326585222       28.0228377120
  H        -0.0796706510        9.0375749901       29.3974262406
  C         1.6344749975       10.2293361470       29.3104679880
  H        -1.6616499356        8.7798087198       26.9498742202
  H        -1.8741947479        8.8325961276       28.6338056856
  C        -3.0965330083       10.2631569276       27.5408310181
  H        -1.1273964669       11.2327040669       30.7460755725
  C        -1.5199935779       14.1396805528       31.5289606191
  H         7.9252478442       12.1168608555       20.4616906562
  H         7.7165150646       13.7238873256       20.7655503900
  C         6.1278699396       12.8833848200       19.6619470872
  C         3.3032421730        7.3496092574       16.0604548450
  H         2.0523005982       10.7584428599       28.4887713966
  H         1.4352366486       11.0995121879       29.9731253430
  C         2.6919953780        9.3461172592       29.9778234488
  H        -3.0412700828       11.0186836607       26.7596577356
  H        -3.3561989319       10.7904042585       28.4601314863
  C        -4.3956230553        9.5144725799       27.2965318977
  C        -1.6018338701       15.5078550680       31.5620299610
  C        -1.8149925049       13.3520813052       32.7275332376
  H         5.3397043587       12.1405647829       19.6311217061
  H         5.7030488185       13.8016521275       19.7518735859
  C         6.9162425483       12.9165574594       18.3532699431
  H         3.0585331727        6.2919108785       16.2044219810
  C         3.7658595761        7.7533509627       14.7964011472
  H         3.1306631949        8.6390628720       29.3310463834
  H         2.2039684342        8.8417073699       30.8329238553
  C         3.7138215689       10.1955844773       30.6394213915
  H        -4.3260228187        8.6266227459       26.7892906110
  H        -4.6862831401        9.2999846976       28.2407530385
  C        -5.4467340354       10.4448072006       26.6587179813
  N        -1.3996132363       16.3972879570       30.5699466549
  C        -1.8800033485       16.0968647282       32.8134057846
  C        -2.1340696518       13.9904709137       33.9539031656
  H        -1.4451163310       12.3021819871       32.5906452231
  H         6.1568466061       12.9569985018       17.5564790272
  H         7.4948893996       13.8098328024       18.2309488085
  H         7.5683841877       12.1647522980       18.4279701770
  S         4.1579154656        9.4189146283       14.3760959190
  C         3.7899852381        6.7896162337       13.6882282232
  H         3.8996140366       11.1543536901       30.1547415328
  H         3.5535849737       10.2703463408       31.7466927241
  C         5.1456664954        9.6175523402       30.5708851031
  H        -4.9479901274       10.7435162949       25.7127819431
  H        -5.3706393061       11.2490493441       27.3228015191
  C        -6.9016980936       10.0626360689       26.6989641908
  S        -1.5866835099       17.9847246971       31.1927983100
  N        -1.8809402991       17.5249062265       32.7228600006
  C        -2.2657230617       15.4692099396       34.0070102265
  H        -2.5030661536       13.3949223530       34.8509247201
  C         4.1661100801        8.7696861000       12.7472122653
  N         4.0578153086        7.4230263451       12.5674881686
  O         3.6296056235        5.5945522220       13.8259583769
  H         5.7762423053       10.4825516626       30.9624653648
  H         5.3909090181        9.5593614246       29.4840392291
  C         5.2485478121        8.2840542054       31.1949410225
  H        -6.9086660356        8.9920376072       26.6022773348
  H        -7.4713420970       10.1951461384       27.6468711986
  C        -7.6442425384       10.7350191559       25.5296680026
  C        -2.6173396898       16.1914098732       35.1592155649
  S         4.4052399165        9.5574049721       11.2403870039
  C         3.9959312393        6.6225113071       11.3266105888
  H         5.7394270146        8.4493523924       32.1470754289
  H         4.2979048035        7.9483718318       31.2753760444
  C         5.9995230603        7.3346396988       30.3395065618
  H        -6.8650205284       11.0612541816       24.8068572906
  H        -8.0390040908       11.6070964756       25.9099151005
  C        -8.7202384754        9.9106169465       24.8131842011
  H        -2.4663327191       17.2687088293       34.9752426840
  C        -2.9626384513       15.8387263388       36.4117019576
  H         4.5425313291        7.0461746531       10.5764103219
  H         4.2241256161        5.6375762842       11.5564548308
  C         2.5701061086        6.5217219928       10.8579617701
  H         6.9974030751        7.4091903691       30.5998660170
  H         5.9097555912        7.4579868264       29.3559192768
  C         5.7194962219        5.9280201933       30.6038772031
  H        -8.9475141762       10.3267605366       23.9373706953
  H        -8.5290068888        8.8808007018       24.6563871289
  C       -10.0874996111        9.7756959944       25.6586122742
  S        -3.3334086810       14.2301062261       37.0015010992
  C        -3.1247346368       16.8975423105       37.4832169686
  H         1.7211832623        6.5471968835       11.6033948401
  H         2.3760131632        7.4794590420       10.2412994008
  H         2.2460408806        5.7284986994       10.1308774425
  H         4.8437678931        5.4749712631       30.1950537175
  H         5.6920380522        5.7104420533       31.7063047858
  H         6.4961734223        5.3310299586       30.1342479635
  H        -9.8754369041        9.6087804907       26.7905461476
  H       -10.6886758310        9.0079658015       25.1943311991
  H       -10.7660115762       10.6601630091       25.6148572546
  C        -3.6782909770       15.0365829829       38.5151843776
  N        -3.6521633176       16.3549098197       38.4957172637
  O        -2.8448565698       18.0564666216       37.1963978484
  S        -3.9651052535       14.1620836070       40.0325094901
  C        -3.7728992221       17.0996696222       39.7351804006
  H        -3.9100526826       18.0506508836       39.3281988675
  H        -4.7161904147       16.8589630001       40.0999288688
  C        -2.5807560033       16.9793454644       40.6478435079
  H        -2.7428878063       16.4048858437       41.5297692314
  H        -1.7786432030       16.5404346038       40.1600833776
  H        -2.1215645749       17.9255385687       41.0630783022
  H         7.3361682600       11.5411008413        3.0803378547
  C         7.7209505506       10.5413463989        3.1782059992
  H         6.8392505315        9.9603495994        3.3398265844
  C         8.6443959504       10.3922159505        4.4269417899
  C         8.4806407153       10.3762114940        1.8836976215
  C         7.9380125378       10.6889427045        5.7930905148
  H         9.1169934794        9.4348448760        4.3567517688
  H         9.4975103116       11.0195504652        4.2256336546
  H         7.8867664460       10.6368289741        0.9645315358
  H         8.8215776940        9.3662667638        1.9129138422
  H         9.3480267620       11.0594932848        1.8531729261
  C         7.2521942321        9.4303443469        6.2914007033
  H         8.5986542548       11.2264514396        6.4992149585
  H         7.1581780488       11.4440289944        5.7933434870
  C         6.4544965911        9.5280479533        7.6055766066
  H         8.1642417204        8.8353640295        6.6743486129
  H         6.5836690050        8.9449919979        5.5011720501
  C         5.2730434410       10.5048225873        7.5718582764
  H         7.1559749612        9.8101142098        8.4071030713
  H         6.1225332461        8.5467357512        7.9162256462
  C         4.0244804499        9.7457755611        7.0505459986
  H         5.0398706423       10.8584102209        8.5633389226
  H         5.3668423523       11.3736272305        6.9326837722
  C         2.7584836152       10.6209238557        6.9451268046
  H         3.8511157051        8.9082721482        7.6110732828
  H         4.2514097239        9.5888637407        5.9416709944
  C         3.0180638455       11.9390009903        6.1832278372
  C         2.2465381312       11.2250662493        8.1818573812
  C         1.5581533995        9.8966427246        6.2738290696
  C         2.8392336248       13.0259307045        7.0285475015
  C         3.5998547306       12.2696120809        4.9548768675
  C         2.3584297224       12.5574083454        8.2322975293
  C         1.8117446629       10.6522378423        9.3418508409
  H         1.8214440278        9.2032603394        5.4571823574
  H         1.2575461304        9.1251168883        6.9539330645
  C         0.3811161676       10.7738692805        5.8371462307
  S         3.4201294107       14.4591970412        6.4123456512
  C         3.8342081645       13.6178031449        4.9464385764
  H         3.9745254478       11.5810520559        4.3094985000
  C         1.9234107089       13.1037291144        9.3824880807
  H         1.7749492154        9.6325457957        9.4485323436
  C         1.3913941107       11.2144433759       10.4790426867
  H         0.7146282616       11.8460852146        5.5120265464
  H        -0.2166142461       11.0779321953        6.7099035485
  C        -0.6148075177       10.1043696480        4.9111830769
  C         4.3628006999       14.2954558252        3.6918580305
  C         1.4787784990       12.5204206327       10.5119053761
  H         1.9161633016       14.1335620412        9.1805127982
  C         1.0901272753       10.8085184626       11.7904266060
  H        -1.4571588029       10.6698979990        5.0221527962
  H        -0.8512356787        9.0589528598        5.0978501977
  C         0.0182465217       10.4654962406        3.5322713254
  C         4.3056051033       15.6912809758        3.4469786704
  C         4.9146303683       13.5149444316        2.6076938763
  C         1.1149389383       13.2855970948       11.8240083590
  C         0.9332579775       11.9343052678       12.6010953600
  S         0.7605200655        9.2747825361       12.5467572330
  H         1.1619042621       10.6825425692        3.7071026028
  H        -0.4563194390       11.4556813366        3.4016824447
  C        -0.1759649898        9.5196195257        2.3599280666
  N         3.9035220795       16.6130417073        4.3852412883
  C         4.5291588059       16.2099835011        2.1535282872
  C         5.1786475473       14.0441455392        1.3320690625
  H         5.0995776329       12.4232106009        2.8502070366
  C        -0.3067695238       14.1002997300       11.6176543903
  C         2.2040740477       14.1709570413       12.3877301606
  C         0.5668862445       11.5135877562       13.8617428926
  C         0.3955843463       10.1261098468       13.9445499319
  H         0.4604526573        8.6157918130        2.3637561384
  H        -1.2044754255        9.1179006619        2.3147575945
  C         0.0810907542       10.2336678738        1.0156834960
  S         3.9112638270       18.1036419763        3.6496967408
  N         4.3526806182       17.6259806409        2.0909015682
  C         4.9696606518       15.5303589923        1.0392818615
  H         5.7570605875       13.3891788467        0.5348447104
  H        -0.0384890169       14.8331986640       10.8403209301
  H        -0.3792931774       14.7211731339       12.4354734259
  C        -1.4897674697       13.2387902139       11.4505986298
  H         2.4012595587       14.9034663545       11.7174890567
  H         1.8603132851       14.6731786312       13.3357054373
  C         3.4784192004       13.4472316270       12.9434075659
  H         0.4028516079       12.1590809186       14.5783264394
  C         0.1568412672        9.3876166493       15.2590455803
  H         1.1420459091       10.4798483984        0.9159574271
  H        -0.2300131069       11.3584171608        1.1586865732
  C        -0.3248070727        9.6195701198       -0.2692175727
  C         5.1262370316       16.1361115162       -0.2181691248
  H        -1.3065253774       12.3783150105       10.8552290653
  H        -1.6913803531       12.8169715263       12.4754024437
  C        -2.7462086285       14.0092280916       10.9568804422
  H         3.9183776967       12.8982807284       12.1982336040
  H         3.1988295388       12.7514914542       13.7110750903
  C         4.5549685568       14.4193827360       13.4216136506
  C         0.0312213565        7.9957160551       15.3970178247
  C        -0.0490801386       10.2500478719       16.4701751492
  H         0.4699508259        9.3655854764       -0.9961227755
  H        -0.8024444928        8.6462415783       -0.0523261313
  C        -1.3444734931       10.4889251565       -0.9999571883
  H         5.1520091506       17.2524821358       -0.2608567095
  C         5.4185013989       15.6967933601       -1.4723939212
  H        -2.3001845760       14.7237281546       10.3127844844
  H        -3.1184857992       14.5344924318       11.8375249377
  C        -3.7535094739       13.1037702807       10.1722188612
  H         4.8300884999       15.0214684777       12.5535609063
  H         4.2981937714       14.9850031825       14.2541069738
  C         5.7432421900       13.6402258366       13.9567337469
  N         0.3291140088        7.0890969858       14.4819247919
  C        -0.3460269772        7.4610196297       16.6289980663
  C        -0.4452206187        9.6918296446       17.6728331712
  H         0.1108607295       11.3275761192       16.3900297284
  H        -1.8216159177       11.3199790823       -0.5259499983
  H        -2.1223914367        9.9213464095       -1.4392487801
  H        -1.0090373955       10.7304211374       -1.9883935081
  S         5.7557487932       14.1633226831       -1.8082208585
  C         5.4747984497       16.7726028443       -2.5453136803
  H        -3.1085619995       12.5875355477        9.4298162143
  H        -4.2500184862       12.4195166082       10.9466968166
  C        -4.6556622604       13.9009297587        9.1423747098
  H         5.5484507770       12.5818572454       13.9112631935
  H         5.7922045973       14.0029411303       15.0560345660
  C         7.0767534387       14.2080543439       13.4747202348
  S         0.2858883682        5.5819265489       15.0902198891
  N        -0.2449414004        6.0632431062       16.6283849994
  C        -0.5671487015        8.1696594657       17.7955658124
  H        -0.4690249156       10.2769237793       18.6615574977
  C         5.8379783144       14.8046146126       -3.5118023000
  N         5.8213162618       16.1433168928       -3.6597559877
  O         5.3381974056       17.9713309135       -2.4593420333
  H        -5.0342191866       14.7092086381        9.4881277598
  H        -4.0087456353       14.2820565601        8.3570415895
  C        -5.9013590947       13.0699290387        8.6910626062
  H         7.8033156700       13.3630107627       13.5592828955
  H         6.9719254552       14.5154557577       12.4756175164
  C         7.3462620149       15.4256931212       14.3620303715
  C        -0.9766297081        7.5614734595       19.0315721156
  S         6.2372966421       13.8095055223       -4.8616052953
  C         5.7429281772       16.8841505322       -4.9737754230
  H        -5.7715594719       12.8449065353        7.6937539261
  H        -5.8291109988       12.2508169328        9.3118432525
  C        -7.2131893085       13.8141738597        8.9827956767
  H         7.6025226654       15.0495963567       15.3559595192
  H         6.4770786179       16.0625773571       14.5123072092
  C         8.3484825738       16.3657097756       13.7613965496
  H        -0.7513429712        6.5196304687       18.9538508670
  C        -1.6015771393        7.9416013231       20.2383423751
  H         6.4706744752       16.5526372393       -5.6575725999
  H         6.0215925764       18.0237171202       -4.8830116679
  C         4.3097539524       16.8346443028       -5.6293567035
  H        -7.8673253112       13.4517090899        8.2387671841
  H        -7.2188438833       14.8170381078        8.9316582039
  C        -7.8992534497       13.5842179896       10.3353381203
  H         9.1824537043       15.7924719775       13.5697070276
  H         7.8057735609       16.6028830349       12.7871798034
  C         8.6426849222       17.5707892549       14.6913178388
  S        -2.3189513065        9.4508102608       20.5886690858
  C        -1.7730614763        6.9176438668       21.3017896614
  H         3.5538626558       16.5530815907       -4.8436944800
  H         4.4420550453       16.1414166361       -6.4364663339
  H         4.0448957951       17.8208247604       -6.0959522479
  H        -7.3929493971       14.1891260126       10.9635614892
  H        -8.9018742951       14.0150285208       10.2674853668
  H        -7.8054522565       12.5227983034       10.6925969151
  H         8.9986658458       17.0332694313       15.5931356175
  H         9.5144840493       18.0595503688       14.0753458614
  H         7.7441163423       18.1217548819       15.0731241779
  C        -2.5820650194        8.8628730924       22.2109198991
  N        -2.3269225670        7.5202743912       22.3585494334
  O        -1.4079329608        5.7076809407       21.2651379221
  S        -3.4082443925        9.8714528825       23.4187783167
  C        -2.5181739317        6.7857846886       23.5878145596
  H        -3.1111980748        5.8973553745       23.3531922953
  H        -3.2356838357        7.2470269668       24.3139567881
  C        -1.1219734864        6.5906144630       24.1515987401
  H        -0.6762562564        5.7258345490       23.7923474634
  H        -1.0721444565        6.4833888137       25.2568514845
  H        -0.5716856285        7.4218882091       23.9447074401
