352
i =
  H        -4.1153685270       14.6549941742       16.5622549586
  C        -3.5466198231       13.8619929811       16.0612317334
  H        -4.1666922913       13.0190758042       16.1417404206
  C        -2.3197837704       13.6958851505       16.9801713824
  C        -3.0789526629       14.1343870610       14.6493696519
  C        -2.7710215759       13.7197219395       18.4883947135
  H        -1.7116164488       12.7581639397       16.7791371525
  H        -1.7343359748       14.5858246176       16.7229164500
  H        -1.9491384469       13.8922387356       14.6219219905
  H        -3.6189284786       13.5414177593       13.9250923132
  H        -3.1660601539       15.1959994419       14.3651604269
  C        -1.5770733967       13.6131457375       19.4859014748
  H        -3.4778538277       12.8484666046       18.6291763953
  H        -3.3551333316       14.6649926198       18.6158115034
  C        -1.9777532583       13.6798244621       20.9706966279
  H        -0.9687574739       12.7365519002       19.3825037208
  H        -0.8573605560       14.3495746851       19.3467630773
  C        -1.0214771610       13.0531253126       21.9552199101
  H        -2.8415307489       13.0535564037       21.1418880668
  H        -2.3764930250       14.6523684720       21.2271193743
  C         0.2481504599       13.9332541188       22.3048797905
  H        -1.5497697590       12.8781541208       22.8908831558
  H        -0.7087522249       12.0866139015       21.5080783955
  C         1.4799435454       13.2569918775       23.0521504031
  H         0.6480176796       14.3136406079       21.3882487575
  H        -0.1929712955       14.8139144795       22.8278405016
  C         1.7846331094       11.8829054853       22.3684986241
  C         0.9866969416       12.5149981741       24.2818264641
  C         2.7495353523       14.1388145377       23.2437666920
  C         1.4259631431       10.7683558485       23.1164072265
  C         2.2708174274       11.5939830051       21.1054423254
  C         0.9779757687       11.1609653943       24.3245770249
  C         0.5477926896       13.1547100430       25.4660121569
  H         2.7660671372       14.6774973299       22.2530632050
  H         2.6250947683       14.8019100543       24.0268665470
  C         4.0971361544       13.5219758256       23.6374644336
  S         1.9096136364        9.2616832431       22.2644968861
  C         2.4686997025       10.2295370463       20.9514912373
  H         2.4533401477       12.4347116836       20.4351304053
  C         0.5895479291       10.5576092215       25.4893646711
  H         0.3870340166       14.2116070434       25.2939219498
  C         0.1000535646       12.5556195745       26.6122171533
  H         4.3784943217       12.6863586243       22.9751186301
  H         3.8270714903       12.9008796687       24.5427912647
  C         5.2851598018       14.4194064904       23.7499432641
  C         2.9860794302        9.5392408764       19.6259820743
  C         0.1167880215       11.2003522768       26.6499756933
  H         0.7266043105        9.5369532352       25.6131850169
  C        -0.3763819524       12.9270505472       27.8080758859
  H         6.1307557544       13.9279698944       24.3176951605
  H         5.0069484115       15.1839733067       24.4515357198
  C         5.6489268077       15.1653667779       22.4791816421
  C         3.0800926956        8.1308840643       19.3417969993
  C         3.3156421109       10.4818108672       18.5158694456
  C        -0.1788609382       10.4777758494       27.9698198036
  C        -0.5525665896       11.8015635623       28.6682409981
  S        -0.7823206623       14.3896248453       28.4601600970
  H         6.1358274863       16.0756724476       22.6535718658
  H         4.7314264270       15.5179730584       22.0708719545
  C         6.4996277664       14.2427532892       21.5661882363
  N         2.8913913877        7.0099206753       20.2005763341
  C         3.2417675332        7.6463261108       18.0509459027
  C         3.6646562429        9.9261977717       17.2774746004
  H         3.4464840069       11.5183689713       18.7338941044
  C         1.0173602835        9.7046259158       28.7141350914
  C        -1.4894406293        9.5982183382       27.7764411359
  C        -0.9471711099       12.2216985723       29.9191559973
  C        -1.1007867817       13.5653845598       30.0122105522
  H         7.4421604711       14.6104372175       21.4679477727
  H         6.6525102350       13.2844152683       22.0449645331
  C         5.8416098225       13.9748606774       20.2488527005
  S         2.9238327470        5.6578791596       19.3548220560
  N         2.9587199240        6.3213313568       17.9164347335
  C         3.5642196981        8.4969674546       16.9812726594
  H         3.9281152176       10.6787248909       16.5276337836
  H         1.1557526680        8.7193934643       28.2910828050
  H         0.7385602299        9.5747763873       29.7559140161
  C         2.3075863361       10.4198309821       28.8110149847
  H        -1.1478790517        8.6933763735       27.2447457044
  H        -1.7632052663        9.2439437861       28.6756561354
  C        -2.6755264567       10.4632252037       27.2795225750
  H        -1.1111007904       11.5269778256       30.7165496332
  C        -1.5770749338       14.3619757889       31.1892240458
  H         5.0826271398       14.7573614525       19.9593919655
  H         5.2707472553       13.0295598157       20.3400774999
  C         6.8833979866       13.9137872298       19.0872925010
  C         3.8257382520        7.9164814338       15.7063580464
  H         2.5566211961       10.8569584395       27.8654888528
  H         2.0349489414       11.2654862987       29.5015952800
  C         3.3840102278        9.3935979487       29.2697499888
  H        -2.4618047444       11.1759426391       26.4963299872
  H        -3.0293006334       11.1658000499       28.0696145625
  C        -3.9565673938        9.7301928245       26.8314963112
  C        -1.6147951199       15.7814377133       31.3572824844
  C        -1.7401181190       13.5613349566       32.4698583500
  H         7.6156973757       14.7733272614       19.1225621241
  H         7.5249315050       13.0596298524       19.3062481409
  C         6.2214875260       13.9244968734       17.7003439458
  H         4.0100227037        6.8509341572       15.6589225487
  C         4.0007237951        8.5029932372       14.4527242887
  H         3.4974336561        8.6609644228       28.5310090466
  H         3.0736647502        8.9859383525       30.2004713069
  C         4.7188036096       10.0344795035       29.6915877522
  H        -3.7750331810        8.9357185216       26.1692090757
  H        -4.5174911578        9.1385802671       27.6255304479
  C        -4.9463940265       10.6771657756       26.1414601025
  N        -1.4707853526       16.7998363579       30.3923902148
  C        -1.9417982812       16.3779687999       32.6032462270
  C        -2.1217632378       14.1623299059       33.6369116953
  H        -1.5247018563       12.5291962938       32.5156730076
  H         6.2369094559       14.9444103437       17.3267391604
  H         6.7908385229       13.3031816209       16.9790891069
  H         5.1801474861       13.5375072574       17.8248043356
  S         4.1484694752       10.1529113234       13.9998141806
  C         4.1225553055        7.5920837413       13.2804702452
  H         4.8397116451       10.9391830572       29.1566945644
  H         4.8105622449       10.2521671965       30.7394301903
  C         5.8933316821        9.1328044732       29.3584145668
  H        -4.5320541549       11.1090892676       25.2381720203
  H        -5.1055859647       11.5541542723       26.7503541501
  C        -6.1873003002        9.9054062576       25.6733094559
  S        -1.6522765699       18.2893418210       31.0771780201
  N        -1.9991842427       17.7578952116       32.5686029297
  C        -2.2078750770       15.6233606668       33.7445836609
  H        -2.2914813522       13.5819092648       34.4873236587
  C         4.3142830191        9.6197692240       12.3212802909
  N         4.3847277174        8.2815603639       12.1703532742
  O         4.1466099880        6.3685764729       13.3169883558
  H         6.6799078189        9.7015816551       28.9748290875
  H         5.6796201456        8.5498469774       28.5373568601
  C         6.3508781209        8.2168072585       30.4620664068
  H        -5.8595977349        9.3384670486       24.7901929278
  H        -6.5667285987        9.2936087026       26.4474968087
  C        -7.2744331185       10.9216719401       25.3108521750
  C        -2.4672487581       16.3205141489       34.8894039498
  S         4.8132571531       10.7414473398       11.0863536710
  C         4.2905449655        7.6661103740       10.8616046488
  H         7.2642856014        7.6477004518       30.1832284066
  H         6.6059156515        8.8677143884       31.3238106107
  C         5.4217323464        7.0117830826       30.7939437129
  H        -6.9820079971       11.3733131619       24.3797177507
  H        -7.3447492519       11.7203431757       26.0376913695
  C        -8.6138775395       10.2667312872       25.0981330248
  H        -1.9179686554       17.2663257312       34.9559133664
  C        -3.0625927163       15.9909059914       36.0346643225
  H         4.7462785845        8.3539206337       10.1288898170
  H         4.9759863896        6.7690813795       10.8849898653
  C         2.8088502927        7.4701093383       10.4120424633
  H         5.1402241297        6.5378781863       29.8447411807
  H         4.4309943805        7.2774272985       31.1698386981
  C         6.0683224151        5.8230952125       31.6197081757
  H        -9.2317271369       10.7685709769       24.4025141215
  H        -8.3580404818        9.2805394430       24.6585042016
  C        -9.3310597826        9.8717531463       26.3948371300
  S        -3.7724253867       14.4422510833       36.4269264821
  C        -3.1584017734       16.9554243438       37.1300378665
  H         2.0345263497        7.3440289999       11.1627521048
  H         2.5237319689        8.3500736625        9.8375927443
  H         2.7308374382        6.6235872812        9.7248325605
  H         6.4874421922        6.2648422241       32.4876049552
  H         6.8714584077        5.4520027937       31.0225546953
  H         5.5246296286        4.8735580952       31.7758082987
  H        -9.0178401466        8.9683786980       26.8911447555
  H       -10.3665758389        9.8586615476       26.0496989129
  H        -9.3691595272       10.7149133432       27.0962802040
  C        -4.2774686048       15.2078840847       37.9749290335
  N        -3.9221246402       16.5153203507       38.1330166169
  O        -2.6581822840       18.1108910276       37.0837644526
  S        -5.0486628483       14.2921142566       39.2712721933
  C        -4.2029676177       17.1637495219       39.3712494987
  H        -4.2295978245       18.1768861967       39.0649490920
  H        -5.1221533208       16.8942967260       39.7982044366
  C        -2.9952309546       16.9649720298       40.3236327790
  H        -2.1129095145       16.5612519655       39.7522415437
  H        -2.7789742620       18.0131955448       40.6287161814
  H        -3.2625560735       16.3409704323       41.1873927723
  H         7.4850419209       11.4008695148        4.0964906880
  C         8.4020443063       10.8508146050        3.9359100909
  H         8.0367526360        9.8749749873        3.9407082460
  C         9.3059624558       11.1220522403        5.0677322983
  C         8.9328649814       11.1157423627        2.5887560389
  C         8.5667245140       11.3745596090        6.4150953429
  H         9.7874069745       10.1404746344        5.1660577411
  H        10.0050359885       11.9502494620        4.8622337990
  H         9.8695921826       11.7201284204        2.7515212561
  H         8.2482068379       11.6997090172        1.9916161197
  H         9.2459501104       10.2370453762        2.0103644802
  C         7.7496806668       10.2096002763        6.8662554142
  H         9.2786080747       11.5995321732        7.1360706508
  H         8.0053882517       12.3988167596        6.3288130965
  C         6.8902389116       10.4900861907        8.1274202741
  H         8.4180566381        9.3719944371        7.0212481227
  H         7.0477164212        9.9518015591        6.0556296297
  C         5.6614316467       11.3009759416        7.7576323711
  H         7.5000915750       11.0409987208        8.8783647690
  H         6.5707825703        9.5969480198        8.6764652637
  C         4.4944211382       10.5511684990        7.1257257785
  H         5.3935902856       11.8215489060        8.6653312994
  H         5.9681111205       12.0127082520        7.0103438848
  C         3.2114159045       11.4311409584        6.9026980395
  H         4.1997437760        9.7152953756        7.7589178462
  H         4.7495726421       10.2463312191        6.1282162331
  C         3.5235026708       12.8101338149        6.2535114066
  C         2.6657418843       12.1090893931        8.0956055783
  C         2.1307994867       10.6500824279        6.0357805417
  C         3.1718395299       13.8993997136        7.0339158700
  C         4.2307668839       13.2736878488        5.1165620627
  C         2.6937291660       13.4569411837        8.2329859063
  C         2.2562755401       11.4316079267        9.1975491909
  H         2.5554543686       10.4290826997        5.0035346415
  H         1.8465690612        9.6921028549        6.4997305355
  C         0.8432995500       11.4057368435        5.8968816303
  S         3.5255718524       15.4441611284        6.3326192575
  C         4.2735207427       14.6219371338        4.9485606609
  H         4.4843067884       12.5654018885        4.3365380155
  C         2.3470397357       14.0444056236        9.3696638202
  H         2.3313209992       10.3673256128        9.1297458610
  C         1.9122766801       12.0104974071       10.3558173124
  H         1.0058600497       12.4902809790        5.5963146966
  H         0.3105659893       11.3688465739        6.8090471373
  C        -0.0890384969       10.7209415341        4.8154500841
  C         4.7027054578       15.3153943666        3.6718200847
  C         1.8594533856       13.3733262607       10.4566534683
  H         2.5339569661       15.1070156102        9.5374798002
  C         1.5146985016       11.5908519615       11.6077689220
  H        -1.0704964973       11.1769159932        4.7644837859
  H        -0.1442751851        9.6293090050        5.0204833980
  C         0.4317384937       10.8470897009        3.3851909156
  C         4.6344690405       16.6997493744        3.3948533832
  C         5.1808436528       14.4197316823        2.5652284793
  C         1.4731847229       14.1253807540       11.6969516688
  C         1.2730132050       12.6674485961       12.4398181504
  S         1.1888281436       10.0869283277       12.3610926432
  H         1.2056343458       10.0826833708        3.4335844278
  H         1.1054467963       11.7542562780        3.3340490037
  C        -0.6087750558       10.8602204439        2.3347446217
  N         4.3448155217       17.7268470538        4.2919929886
  C         4.8154957705       17.2414332305        2.0857763801
  C         5.5526951765       14.9801428155        1.3295713336
  H         5.5538002208       13.4464631258        2.7708357277
  C         0.0491139737       14.8423732619       11.5932979845
  C         2.4816031699       15.0720570867       12.3090887987
  C         0.9351980249       12.2542858356       13.6960267681
  C         0.7761489403       10.8881947773       13.8458732239
  H        -1.5614184776       10.5853477987        2.6457002804
  H        -0.6554369950       11.9324071226        1.9461111486
  C        -0.2090058789       10.0067164792        1.1471596627
  S         4.2358036186       19.1831171273        3.5370754271
  N         4.5511874884       18.6732225153        2.0194832816
  C         5.2475156635       16.3988375937        1.0105677014
  H         5.8650395887       14.1831839607        0.6113560751
  H         0.2168714643       15.6867195572       10.9602478018
  H        -0.3773219544       15.1466645000       12.5878892956
  C        -0.9439120625       13.9062865922       10.8794262086
  H         3.3151194128       15.1756233971       11.5810459254
  H         2.0616665350       16.0192631114       12.4121773566
  C         3.0561458826       14.6145530283       13.6509473457
  H         0.6403245891       12.9424014578       14.3897445977
  C         0.2807435052       10.0650297967       15.0197851946
  H        -0.8983543137        9.1678260221        1.0353040803
  H         0.8238122751        9.6285844609        1.3103692433
  C        -0.0920130755       10.6063157859       -0.2290377439
  C         5.4090972314       17.0401506137       -0.2367603285
  H        -0.6375874170       13.4865966368        9.9347228242
  H        -1.2290377407       13.0678830645       11.5400372084
  C        -2.2200535683       14.6859095172       10.7186089904
  H         3.4779113085       13.5772911150       13.5063026409
  H         2.2089153852       14.5203174926       14.3257613588
  C         4.0881549428       15.6270879612       14.1948695157
  C         0.3631240355        8.6814656052       15.1907772932
  C         0.0146310608       10.8268101773       16.2430115611
  H         0.6589156262       11.3690115532       -0.2419477125
  H         0.1490419894        9.8895545577       -0.9658013148
  C        -1.5500969068       11.0333279088       -0.7226898246
  H         5.3371435127       18.1381712245       -0.1868917868
  C         5.6092106298       16.5214642424       -1.5158910179
  H        -2.2252876505       15.3945802393        9.9799915639
  H        -2.5521579184       15.2633786890       11.5742825775
  C        -3.3502786475       13.6737418417       10.4539176128
  H         3.6433832154       16.5779536270       14.3854293966
  H         4.3974895893       15.2728740888       15.1615525011
  C         5.4451600973       15.8037907649       13.4501546053
  N         0.7310701589        7.7372956357       14.2197289429
  C         0.1369842915        8.0645209919       16.4063595389
  C        -0.1508511769       10.3006686769       17.4810303231
  H         0.0379321100       11.8590989932       15.9740966201
  H        -1.6170764184       10.9244049637       -1.7978738393
  H        -1.8120457938       12.0601579079       -0.5332078464
  H        -2.3171472044       10.3447950396       -0.5247562403
  S         5.8536790808       14.8784485149       -2.0436496790
  C         5.6140288283       17.5233750222       -2.6330861950
  H        -2.8255057197       12.9980050230        9.8038539202
  H        -3.5266375687       13.2004295461       11.3984301314
  C        -4.5791342086       14.1719756358        9.7256136174
  H         5.2473046230       16.1537888265       12.4505273853
  H         6.0134856529       14.8738459340       13.4258539289
  C         6.2889687882       16.8909458996       14.1915642542
  S         0.7810643536        6.2152431319       14.8067249124
  N         0.2282546563        6.6830852776       16.3076069094
  C        -0.2012229223        8.7629863429       17.6070633006
  H        -0.3022751479       10.9083108102       18.3274850225
  C         5.9667096822       15.5178654898       -3.6746597993
  N         5.9812486861       16.8759004465       -3.8089990683
  O         5.4993333634       18.6933170882       -2.4389334887
  H        -5.0145713760       15.0378776394       10.2592372056
  H        -4.3804025939       14.6093673168        8.7854113879
  C        -5.7641606568       13.2575609879        9.4471776502
  H         5.9421687039       17.8857707073       13.9836829111
  H         6.0393804972       16.8868472292       15.2371030493
  C         7.7614777178       16.7874473666       13.9023522934
  C        -0.4506122980        8.0258239136       18.8113906275
  S         6.2873988121       14.6615405636       -5.0706114386
  C         6.0367856924       17.5943222982       -5.0832858915
  H        -5.5406194126       12.5008556492        8.6387170219
  H        -5.9145296375       12.5571223637       10.3023805740
  C        -7.0859163649       14.0936723985        9.1928327883
  H         7.8642695801       16.7005209101       12.8225714832
  H         8.1405757894       15.9332290619       14.3693514162
  C         8.5134490721       18.0068350244       14.3825139480
  H        -0.1874953562        6.9936672957       18.6589378074
  C        -0.9708343355        8.3585990258       20.0219808462
  H         6.5595183190       17.0021979561       -5.8240413398
  H         6.4746221128       18.5683607267       -4.9683785751
  C         4.5804556815       17.7527317803       -5.5754437670
  H        -7.5459559148       13.7002769464        8.1935168956
  H        -6.9529626059       15.1706107620        8.8794592922
  C        -8.0794018043       14.0575177786       10.4117587190
  H         9.4792369294       17.8503653400       13.9448457534
  H         8.1872401262       18.9868929773       13.9325000848
  C         8.5166351047       18.0534565422       15.9398380103
  S        -1.7489352809        9.8998141459       20.5060640189
  C        -0.9606172291        7.3007727445       21.0345822840
  H         3.9349967572       18.1383961891       -4.7701089891
  H         4.1166878044       16.8254666320       -5.9302213800
  H         4.5295523827       18.4297096717       -6.4636092892
  H        -8.1345940315       13.0606581380       10.7529647966
  H        -7.6994416234       14.6061289872       11.2308286008
  H        -8.9916649503       14.5678423697       10.2407428364
  H         8.3412584068       17.0513330736       16.3880358613
  H         9.4911945441       18.3711027425       16.2943735972
  H         7.8010764492       18.7647420915       16.3431872188
  C        -1.8684833896        9.1044075563       22.0749248004
  N        -1.5831543388        7.7697924137       22.1454265804
  O        -0.5950550043        6.1450696857       20.8205460657
  S        -2.5448495907        9.8711616465       23.5314329165
  C        -1.7809424604        6.9140007978       23.2486781000
  H        -1.8910935511        5.8724152277       22.9882101013
  H        -2.5858422563        7.2603413744       23.8621184642
  C        -0.5454766270        6.9869544963       24.0917095797
  H        -0.0194530287        6.0060005623       24.0225687992
  H        -0.7551230134        7.2301183930       25.1679228026
  H         0.1413449288        7.7460254850       23.7428022000
