352
i =
  H        -3.3038601868       14.9573422603       15.9523558618
  C        -3.4367620639       13.8838047943       16.2461643011
  H        -4.3917287882       13.6389196603       16.6741278377
  C        -2.3729441666       13.7762308620       17.3609089776
  C        -3.1263851406       13.0336358794       14.9775933207
  C        -3.0736179949       13.5743498959       18.7147861106
  H        -1.6381234275       12.9789000796       17.0527591354
  H        -1.8122975217       14.7502155871       17.3897733879
  H        -3.6789586748       12.1094120746       15.0442142298
  H        -3.4766890288       13.5067143174       14.0289581281
  H        -2.0523885700       12.8229497379       15.0046466099
  C        -1.9626231977       13.2557722660       19.7726029958
  H        -3.9052136162       12.9097486988       18.6729954333
  H        -3.5912676464       14.5364930795       19.0286784126
  C        -2.6257977733       13.2310280164       21.1945506865
  H        -1.4760076729       12.3559118418       19.5168172595
  H        -1.2300077299       14.1083188717       19.7409765226
  C        -1.6890127264       12.5680177250       22.0939719412
  H        -3.5011468180       12.5138999818       21.0828083526
  H        -2.8895137788       14.1886174547       21.5488344541
  C        -0.4477152971       13.3944584094       22.4762845166
  H        -2.1707889872       12.2696606000       23.0879407374
  H        -1.3752172698       11.6028048758       21.6595091243
  C         0.7434878489       12.7150500159       23.1946084569
  H        -0.0599162507       13.9352187198       21.6588742519
  H        -0.6999451401       14.2543256489       23.1332945604
  C         1.0838437777       11.3617658953       22.5992948471
  C         0.2922661118       12.0886285653       24.4707470329
  C         1.9589566542       13.5878982527       23.2777182485
  C         0.8963290306       10.2669146437       23.4527176186
  C         1.5788323239       10.9718243462       21.3281896981
  C         0.3759272664       10.7359186146       24.5974074467
  C        -0.1791243890       12.7496158360       25.6238648328
  H         2.2871430068       13.8811026686       22.3064114730
  H         1.8118870295       14.4882909871       23.8108949216
  C         3.0733414134       12.8773434231       24.0462193469
  S         1.4111117292        8.6944636487       22.7385418963
  C         1.7625218463        9.5821210688       21.2419997964
  H         1.6425889758       11.6240513241       20.5009633230
  C        -0.0275618574       10.1478113761       25.8017771362
  H        -0.2100131821       13.7817022994       25.4598711984
  C        -0.4308597078       12.1361443075       26.8453840760
  H         3.4760955040       12.1734289070       23.3781071920
  H         2.7972867116       12.2708842909       24.8996565427
  C         4.2576382777       13.7918444520       24.2782230635
  C         2.2437330706        8.7787374495       19.9565457244
  C        -0.3935274933       10.7960503977       26.9734185718
  H         0.0908409464        9.0204029711       25.8975385049
  C        -0.7876026066       12.5268854713       28.0959356729
  H         5.0389936878       13.3920115827       24.9243176194
  H         4.0026585811       14.7603714819       24.7241809859
  C         5.0026993706       14.2264158633       22.9722036896
  C         2.1896568628        7.4049190244       19.7274740435
  C         2.6196031859        9.5388653699       18.7191725644
  C        -0.6864407122       10.1436248534       28.2307070823
  C        -0.8437712707       11.4517806000       28.9627452827
  S        -1.0153696683       14.0427202116       28.8587635327
  H         5.2244732050       15.2305292547       23.0818801781
  H         4.4542140752       14.1922931465       22.0990663746
  C         6.3700678509       13.4492188498       22.6956844613
  N         1.8096760230        6.4872198392       20.7123410510
  C         2.4460976688        6.7723743285       18.5275052410
  C         2.9701719920        8.9531696868       17.5006498892
  H         2.6958322274       10.6534756909       18.8313884990
  C         0.5031596925        9.2167889858       28.8044384811
  C        -1.9687019912        9.2978898116       28.0812204254
  C        -1.1910525624       11.8616558252       30.2589160053
  C        -1.3523492209       13.2365049319       30.3047548495
  H         7.0480850294       14.1645414539       22.2176043855
  H         6.8928680513       13.1544549470       23.6636461986
  C         6.1008841146       12.3688866731       21.6880783224
  S         1.7921961643        5.0052419186       20.0142015723
  N         2.2710525227        5.3602617961       18.4971529754
  C         2.8029811719        7.5266408192       17.3651253463
  H         3.2964296267        9.5532344329       16.6880117515
  H         0.7899908407        8.5166338177       28.0335251890
  H         0.0712530232        8.5917200011       29.5865490242
  C         1.7609931976        9.9255278983       29.2481031716
  H        -1.8340018909        8.4378164166       27.4299973604
  H        -2.3038116697        8.9698188590       29.0529806487
  C        -3.0875378126       10.1786616398       27.4981222312
  H        -1.4635327306       11.1838562370       31.0264216484
  C        -1.6760259122       14.0889432456       31.4889200005
  H         5.0580330324       12.0325908497       21.6814304350
  H         6.7571137460       11.4588404526       21.8913040903
  C         6.5640958956       12.7648426128       20.2403571306
  C         2.9588840271        6.8031712765       16.1603021036
  H         2.1176562204       10.6117035546       28.4440698585
  H         1.5641285741       10.4931729862       30.1742650214
  C         2.9283884988        8.9814493328       29.5963338153
  H        -2.9056401417       10.4693414337       26.4237176652
  H        -3.2637986532       11.1135488623       28.0905056563
  C        -4.4504191985        9.4799564885       27.4858357880
  C        -1.6095946926       15.5307000866       31.6092550392
  C        -1.9559435364       13.3729273897       32.7328831450
  H         6.1317217606       12.1640197784       19.4369201810
  H         6.2229682767       13.7811382170       19.9860714838
  C         8.0519488166       12.5870393284       19.9544951026
  H         2.6803396317        5.7318742876       16.1837875903
  C         3.1972349588        7.2309747133       14.8709464717
  H         3.2936583781        8.5194650419       28.6901393341
  H         2.5431104864        8.2181323489       30.3216486559
  C         4.1089183998        9.6681312669       30.2957269120
  H        -4.3760341880        8.5630480214       26.8615012148
  H        -4.6986675250        9.0858423423       28.4270085133
  C        -5.5045349398       10.4529421418       26.8648783178
  N        -1.3476262084       16.4671289200       30.5629179798
  C        -1.8362462748       16.2456603624       32.7498927638
  C        -2.2132218271       14.0525982240       33.8758777980
  H        -2.0293244551       12.2868251040       32.7785371668
  H         8.3459331336       13.1876022614       19.0928623502
  H         8.6712895868       12.8278156091       20.8505925972
  H         8.2880499455       11.5931862665       19.5817316479
  S         3.5799937934        8.8020254932       14.3739275611
  C         3.3942883950        6.1095336799       13.8719184088
  H         4.4374447218       10.4757431126       29.6855788538
  H         3.8710694277       10.1935962405       31.2567167529
  C         5.3043424071        8.6857213607       30.5328293356
  H        -4.9620879171       11.0004043947       26.1641586417
  H        -5.9906907270       11.2001460689       27.4820170547
  C        -6.5799614256        9.6444591483       26.1548085624
  S        -1.2320499123       18.0226604127       31.0487832654
  N        -1.5397526337       17.6138511275       32.6698093878
  C        -2.0856654101       15.5391044849       33.9867951372
  H        -2.3278965988       13.4024916102       34.7981211323
  C         3.8692780396        8.0424339841       12.7907488780
  N         3.7065578052        6.7225113047       12.6981235289
  O         3.2462603217        4.9308455125       14.0416961114
  H         6.2938442787        9.2247682670       30.4968603585
  H         5.2367232966        8.0016971754       29.7186548710
  C         5.1630406910        7.7632255854       31.7818033727
  H        -6.2906458095        9.2279995066       25.2137676514
  H        -6.7892973234        8.7945672624       26.8047904029
  C        -7.7935145461       10.4883683609       25.7528438800
  C        -2.3002172206       16.2935661725       35.1658239935
  S         4.3326256230        8.8002137724       11.2718928971
  C         3.7183741974        5.9851659614       11.4598443972
  H         6.0454266401        7.9284237603       32.3323920810
  H         4.3559821164        8.1721093455       32.3597294165
  C         5.0425632263        6.3526013327       31.4165372613
  H        -7.5667821794       11.1157598543       24.9513494998
  H        -8.0806153265       11.1158157743       26.5815388191
  C        -9.0227284869        9.5732494431       25.3245285492
  H        -2.3366546643       17.3860923485       35.1594700865
  C        -2.8727129979       16.0102127678       36.4011185369
  H         4.5945184360        6.0881158429       10.8176121431
  H         3.7705457987        4.9573106753       11.6278263118
  C         2.4128568134        6.0229116793       10.7546020852
  H         4.1555626678        6.1802458989       30.7626548066
  H         4.8723131116        5.7153199068       32.3168957737
  C         6.2937092294        5.7034428412       30.9708491365
  H        -9.4424636907        9.8278327924       24.2757553337
  H        -8.7306327030        8.5651579749       25.3110512182
  C       -10.1812563240        9.9864848336       26.2462569063
  S        -3.3938351386       14.5181949317       37.0786977672
  C        -3.1359144837       17.1536262187       37.3433789487
  H         2.1242015083        7.0624027552       10.6751544765
  H         2.4725087049        5.4929591608        9.7531304295
  H         1.6865554753        5.3390460260       11.2138897055
  H         7.1088720931        5.9105541946       31.6564122916
  H         6.4586228379        6.0381919239       29.9193591772
  H         6.1684729875        4.6160206512       30.8458003452
  H       -10.0128933615        9.7570846053       27.2952271063
  H       -11.0664220033        9.3653565195       26.0588159137
  H       -10.5884913070       11.0240339746       26.1803670328
  C        -3.8846209924       15.3878459498       38.4563006942
  N        -3.7182961748       16.7413206849       38.4417951358
  O        -2.7050189696       18.3151615733       37.2236981850
  S        -4.1240787752       14.6084443757       40.0384511712
  C        -3.8766097656       17.5894252331       39.6735980647
  H        -4.2196427180       18.5824616076       39.3748834346
  H        -4.7437392572       17.2848292764       40.2947379347
  C        -2.5532564426       17.6602223501       40.4057360158
  H        -2.4146795348       16.7088044154       40.7534324260
  H        -1.7833943802       18.0314735437       39.7504347505
  H        -2.6151938259       18.3830104650       41.2514696685
  H         7.1285329734       11.2122893461        3.7368249301
  C         7.7001913808       10.3491728776        3.6785147539
  H         7.0104887929        9.5258062173        3.4451219284
  C         8.4138739250        9.9827259989        5.0314690305
  C         8.6139826613       10.4174241664        2.4261436201
  C         7.6809037800       10.3011686613        6.2923015550
  H         8.7683008965        8.9208353446        5.0494124024
  H         9.2280271090       10.6484313672        5.0250019106
  H         9.5689182824       10.9118300589        2.7318719717
  H         8.2669383868       10.8319863600        1.5026672415
  H         8.7823967033        9.3769218430        2.2384148037
  C         7.0983371143        9.0828387557        6.9449905867
  H         8.3290655771       10.7793887330        7.0057207605
  H         6.8948220752       11.0352806625        6.2196314692
  C         6.3802448647        9.2743442886        8.1987950118
  H         7.9271187665        8.3444744419        7.0472986020
  H         6.3844556878        8.6285267505        6.2469039042
  C         5.0937624016       10.1412626486        8.1169561223
  H         7.0676966993        9.5197091731        9.0203385805
  H         6.0153661797        8.3277939739        8.6268257504
  C         3.8930680977        9.4907475996        7.3189887040
  H         4.7452207672       10.3440991754        9.1102884077
  H         5.2231508772       11.1046204200        7.6544377393
  C         2.6469966114       10.3287217628        6.9922303416
  H         3.6273021929        8.5583736192        7.8792905884
  H         4.3009437979        9.1570671525        6.3521171283
  C         3.0675021756       11.7002667179        6.4005704288
  C         2.1053737388       11.0633427151        8.2115908802
  C         1.6034581697        9.6945273590        6.0029220518
  C         2.6868628423       12.7938556679        7.1108025632
  C         3.6502843993       12.0782306097        5.1781592975
  C         2.1898325177       12.4354402398        8.3201187887
  C         1.6487841636       10.4195455181        9.3421507483
  H         2.2106634793        9.3365214062        5.1507321878
  H         1.0806173239        8.8930025116        6.4677946772
  C         0.5570277576       10.6276468872        5.3452359465
  S         3.0371900049       14.2501395917        6.4603638212
  C         3.5196980239       13.4590735929        4.9498555323
  H         4.0206868572       11.2500305030        4.5663761059
  C         1.8539203192       13.0177779591        9.4604752310
  H         1.6490252189        9.3304366394        9.3456579290
  C         1.2781433857       11.0724081031       10.5234264636
  H         1.0206125644       11.3184560645        4.5766597584
  H         0.2101677859       11.3705764356        6.0957262133
  C        -0.5738527830        9.8455730143        4.7034135707
  C         3.9649653126       14.2327543319        3.7511144418
  C         1.4419055299       12.3950078181       10.6490307439
  H         1.9374660394       14.1005390741        9.5465913618
  C         0.7808889508       10.6920220078       11.7923977241
  H        -1.2462969484        9.3824634991        5.4178381411
  H        -0.1022100352        8.9301156425        4.2563192865
  C        -1.3339039249       10.6099786625        3.5918371258
  C         3.9452072445       15.6321669143        3.5963724094
  C         4.2904522286       13.3883553194        2.5583539362
  C         1.1094867315       13.0723867693       11.9803705080
  C         0.7510971106       11.7580492416       12.6240147906
  S         0.4883313949        9.1187005660       12.5180650092
  H        -0.6678897725       11.2916544865        3.1475883194
  H        -2.1266739964       11.2812758150        4.0091407873
  C        -1.9685473232        9.5769316141        2.5820568945
  N         3.6355959312       16.5261370537        4.5895090477
  C         4.3334029106       16.2458822198        2.4129012062
  C         4.6743588781       14.0146589536        1.3836895715
  H         4.3179941673       12.2933093651        2.6356322169
  C        -0.0284567631       14.0328827318       11.7994503704
  C         2.2782427581       13.8555443023       12.6974858747
  C         0.3486442236       11.4162546884       13.8986163329
  C         0.1496689910       10.0453329140       13.9994714902
  H        -2.5664982689        8.8393098082        3.1488028564
  H        -2.8391106200       10.0035231311        2.0427396549
  C        -0.8951637078        9.0146338700        1.6245453201
  S         3.7952054737       18.0250783081        3.9430181605
  N         4.2850437825       17.6227481017        2.4664346106
  C         4.7886863223       15.4997686562        1.2984349928
  H         4.9197227657       13.4090023652        0.5448694306
  H         0.2529086288       14.8639360051       11.2206346634
  H        -0.2825735903       14.4037272119       12.7653363540
  C        -1.3442062259       13.2349539115       11.2624391071
  H         2.6436850992       14.6309652069       11.9271602188
  H         1.9279140573       14.4014048488       13.5270206122
  C         3.3807347536       12.9357730904       13.1466589227
  H         0.2500383546       12.1241030969       14.6804051454
  C        -0.2061923752        9.2665394189       15.2969666433
  H        -1.0518780561        8.0172995359        1.3729813506
  H         0.0398375409        8.9279602337        2.1301403271
  C        -0.5668815927        9.9217592640        0.4060478853
  C         4.9990579032       16.2152251336        0.1402752463
  H        -1.1010402085       12.7753630068       10.3276010018
  H        -1.7526740770       12.4423689380       11.8969089996
  C        -2.5666252173       14.1535638425       11.0562344116
  H         3.6227199296       12.3253387367       12.3058977713
  H         3.0602645338       12.2105530048       13.9258431170
  C         4.5682738098       13.6891051659       13.7487916086
  C        -0.3901861598        7.8634198499       15.4214391104
  C        -0.1987103735        9.9854467963       16.5983363164
  H        -0.2875360989       10.9110308021        0.8271379833
  H         0.2690051464        9.6016632948       -0.2105092675
  C        -1.6036313132       10.3153092245       -0.5959402162
  H         5.0782877956       17.2347361877        0.3502551529
  C         5.2044940926       15.9024527397       -1.1872838594
  H        -2.4130369754       14.8503902465       10.2603524862
  H        -2.8553432432       14.8167442132       11.8892696227
  C        -3.7826146887       13.3279966201       10.8055981975
  H         4.6727762247       14.5593033246       13.1669039216
  H         4.2448767592       14.0188782627       14.7084277321
  C         5.6976992126       12.7525477456       14.0128030409
  N        -0.2660706130        7.0065083361       14.3713400105
  C        -0.6324858682        7.2920886908       16.6422056962
  C        -0.4432497950        9.3375302416       17.8306397415
  H        -0.0161098430       11.0624805585       16.5244584684
  H        -1.3894678203       11.2209613041       -1.1084693771
  H        -2.5461475912       10.6397911097       -0.0800912977
  H        -1.8509709550        9.5318724471       -1.3687959905
  S         5.4921901622       14.3620696233       -1.8710387888
  C         5.1982548529       16.9857763398       -2.2121505916
  H        -3.5399537610       12.4603034199       10.1592820682
  H        -4.1683778565       12.9204841236       11.7372587346
  C        -4.9114438863       14.1517753956       10.0898562904
  H         5.7620435633       12.1379394050       13.1548325737
  H         5.3832553476       11.9844112625       14.7818470069
  C         7.1192325889       13.3001369793       14.1698668632
  S        -0.4131644797        5.4739720367       14.9315966342
  N        -0.7947304089        5.9041131033       16.4885135014
  C        -0.7274180258        7.9228910931       17.8492485057
  H        -0.3563053631        9.8122581081       18.8104011468
  C         5.6479364540       15.1793245922       -3.4307039719
  N         5.5873010101       16.5176163132       -3.3845797330
  O         4.8937283528       18.1894338120       -1.9558748214
  H        -5.4467405840       14.7756958481       10.8450769222
  H        -4.5478510815       14.8484200866        9.3524379598
  C        -6.1139979997       13.3633153004        9.5428662412
  H         7.6430803113       12.4669156780       14.5573234595
  H         7.6522276707       13.5156650414       13.2780059806
  C         7.1519952267       14.4259716536       15.2129435015
  C        -0.9539666230        7.2145461866       19.0191860288
  S         6.2963929900       14.3966266688       -4.9074977534
  C         5.6480358905       17.3754406409       -4.5533661172
  H        -5.5835494629       12.7537861412        8.7854549018
  H        -6.6130929661       12.6803109463       10.3585117699
  C        -7.2805365265       14.2150313370        9.1273503921
  H         7.7293687505       14.0592005721       16.1142056173
  H         6.2562140892       14.8566223560       15.6772868039
  C         7.9641340730       15.5745976412       14.7149604794
  H        -0.7782233255        6.1628395099       19.0855889865
  C        -1.2978115427        7.5582274728       20.3277082495
  H         6.5349451626       17.1279921074       -5.1499974729
  H         5.8948462276       18.3561839955       -4.3161241692
  C         4.3597537386       17.4334583187       -5.4139363421
  H        -7.8008369313       13.8287430699        8.3630374769
  H        -6.8147849923       15.1586770074        8.7667738217
  C        -8.3554727924       14.3957921162       10.2165729507
  H         8.6143529077       15.8934136751       15.5342212906
  H         8.5671413370       15.2178361682       13.9020530694
  C         7.2336337288       16.7184487741       14.0920204729
  S        -1.8672136359        9.1141484071       20.7638305265
  C        -1.4407905567        6.4962427805       21.3758463241
  H         3.7639780582       18.3161439714       -5.1294558932
  H         3.7236894366       16.4698528662       -5.3657657760
  H         4.5995146242       17.4730443814       -6.4796036140
  H        -8.8525977581       13.4354168317       10.4760069623
  H        -8.1064694641       14.7914227945       11.1574157954
  H        -9.2004343634       14.9477570887        9.8703731914
  H         6.2246483325       16.3716647923       13.7125136991
  H         7.0117787342       17.4548535753       14.8835451479
  H         7.7936753924       17.2168941265       13.2622030822
  C        -1.9715530319        8.4461997733       22.4244646909
  N        -1.9160333637        7.0929491900       22.4737305052
  O        -1.2192038151        5.2709212088       21.2483738054
  S        -2.9135610424        9.2940060688       23.6559262519
  C        -1.9851903731        6.3627778863       23.6987496598
  H        -2.4300892707        5.3701350235       23.4636346366
  H        -2.5538492837        6.7858063642       24.5085071081
  C        -0.6804631455        6.1657403463       24.4661398070
  H         0.1084489742        6.0579828325       23.7076122915
  H        -0.6596203681        5.2105347580       25.0411054678
  H        -0.4332625326        7.0342605476       25.0371056824
