352
i =
  H        -3.8085562800       12.4398722501       16.8050920912
  C        -2.7647697686       12.6914139387       16.9987426654
  H        -2.2574274226       11.8531970087       17.4672304591
  C        -2.8455335766       13.7922832409       17.9629699263
  C        -2.1848483307       13.0597713155       15.6072483645
  C        -3.1234163110       13.3656304117       19.4019416697
  H        -1.9513017717       14.4596253185       17.9895319043
  H        -3.7168688887       14.3402388220       17.6536473102
  H        -2.0095858486       12.1513123032       15.0056536296
  H        -2.9321740286       13.6703583089       15.1058213356
  H        -1.2686194866       13.5824074086       15.6140944612
  C        -1.9325842060       12.9899941514       20.2650195656
  H        -3.9281261116       12.6286674838       19.4953468199
  H        -3.5218135170       14.1540177617       19.9481010688
  C        -2.3618768424       13.0089774294       21.7194144044
  H        -1.5358456815       12.0071531005       20.0608602068
  H        -1.0020660356       13.6507732476       20.1475414189
  C        -1.3262170687       12.3978340940       22.5918765128
  H        -3.3421593817       12.4662162755       21.8140882604
  H        -2.5605327100       14.0531701493       21.9600965721
  C        -0.1040795833       13.2913432493       22.9186532199
  H        -1.6448102392       11.8886813738       23.5345252551
  H        -0.8854585137       11.6068390460       22.0915564182
  C         1.0057935562       12.6005880229       23.8025441432
  H         0.3366224378       13.6622332065       21.9850724464
  H        -0.3331982584       14.1569395855       23.5229038355
  C         1.3261338200       11.3136769143       23.0052833440
  C         0.6509526575       11.8043789549       25.0329098802
  C         2.2690955180       13.5043491083       23.9239462668
  C         1.0505028699       10.1306139202       23.7883432849
  C         1.7554070657       10.8964990857       21.7115384089
  C         0.6377589934       10.4630674906       25.0946079286
  C         0.1264033887       12.4109820517       26.2000393550
  H         2.4656970296       14.1075242369       23.0021888344
  H         1.9960344596       14.2355077576       24.7069183202
  C         3.5950476265       12.8450912915       24.3147990928
  S         1.5739131441        8.6269884682       23.0869637605
  C         2.0079103018        9.5292043722       21.6452758670
  H         1.9474053120       11.6124658670       20.8845721637
  C         0.3902615877        9.8246161542       26.2577431669
  H         0.0595818530       13.4601704514       26.2649213898
  C        -0.1292479389       11.7854248295       27.3730965073
  H         3.9991403155       12.1951976068       23.5549662802
  H         3.4509475891       12.3349404701       25.2664451250
  C         4.7222683056       13.9261205171       24.4508330350
  C         2.5236671147        8.8189840142       20.3630256940
  C        -0.0816986705       10.4128956614       27.4913527321
  H         0.5093377898        8.7017629193       26.4310763146
  C        -0.5476901813       12.1914975773       28.6114965038
  H         5.6311716651       13.4033676517       24.8111876769
  H         4.4160866740       14.6045950448       25.2639208429
  C         5.3297332274       14.6586635240       23.3647410552
  C         2.4747902958        7.4562259446       20.0955639079
  C         3.0587472100        9.7001944940       19.2699901176
  C        -0.4822008394        9.7449470512       28.7832074830
  C        -0.7199078430       11.1296817734       29.4819348002
  S        -0.9318653836       13.7128816235       29.1897326560
  H         5.7737984852       15.6334918850       23.6622207052
  H         4.4198587773       14.7721632905       22.7773293271
  C         6.1769059169       13.8061717108       22.4050500990
  N         2.1193299620        6.4576579916       20.9922997881
  C         2.7523058277        6.9484928218       18.8602551022
  C         3.4121549809        9.1628304712       18.0205047064
  H         3.1273607102       10.7755078232       19.3717353011
  C         0.7034540296        9.0048593343       29.3816248979
  C        -1.8435794629        9.0197498198       28.6239936054
  C        -1.1930035900       11.6813966120       30.6968548295
  C        -1.3706055195       13.0191952360       30.7359655218
  H         7.0943230662       14.3970214175       22.4199417230
  H         6.5333456559       12.8404878783       22.7187470722
  C         5.5218885168       13.7474252935       20.9918561017
  S         2.0331984497        5.0288550671       20.2419109038
  N         2.5122365080        5.5629132992       18.7821971705
  C         3.2802214622        7.7113602709       17.7196041359
  H         3.7661816269        9.8356632498       17.2892031277
  H         1.1491203186        8.4432973993       28.5725726684
  H         0.2928129545        8.2894309661       30.1002398132
  C         1.8218671983        9.8651394581       29.9349212531
  H        -1.6372935458        8.3570830135       27.7999374423
  H        -1.9573208023        8.2973175986       29.4051172246
  C        -3.1881721110        9.9164762545       28.3871225489
  H        -1.3759046587       10.9690949083       31.4390554404
  C        -1.7923362049       13.8576427310       31.8913921666
  H         5.2131095687       14.7530163120       20.7089236566
  H         4.7082197232       13.0134644315       21.0583926406
  C         6.4751323991       13.2059247494       19.8574494687
  C         3.4543412245        7.0569966225       16.4526346225
  H         1.9902113518       10.8460905825       29.3701936635
  H         1.3205926866       10.2589491409       30.8857371030
  C         3.1476947255        9.2113868538       30.0960806332
  H        -2.9483448053       10.7400702601       27.6833846840
  H        -3.5136151278       10.2319530130       29.4215033224
  C        -4.2049950584        9.1362004200       27.6062664584
  C        -1.7789230231       15.2349545070       32.0044765695
  C        -1.8566245540       13.1857308255       33.2404323712
  H         7.2720284556       13.8885566069       19.5543952052
  H         6.9235837211       12.3348790108       20.1666112960
  C         5.5711678136       12.8395509654       18.6854786872
  H         3.5014842469        5.9500050789       16.5488097277
  C         3.7317628413        7.5574485548       15.2575016968
  H         3.4498377588        8.7678042790       29.1495603243
  H         3.0840778570        8.3922062018       30.8240330086
  C         4.2427659885       10.2549472059       30.2989358610
  H        -3.7538780062        8.5512358762       26.8475711560
  H        -4.8679544518        8.4204545757       28.1158149640
  C        -5.2307474574       10.0469936029       27.0282467606
  N        -1.3315028164       16.0258135549       30.9371891375
  C        -1.9987215532       15.9821179269       33.1978717091
  C        -2.1811185730       13.9010729217       34.3776639634
  H        -1.6662275458       12.1445270435       33.4133465511
  H         4.8738334846       13.6807050320       18.3490075860
  H         6.2784139756       12.7013197108       17.8001141290
  H         5.0755004657       11.9326153428       18.9701108225
  S         3.9057113087        9.1615627358       14.7348830993
  C         3.9670150224        6.5131395471       14.1525989892
  H         3.9970338691       11.2002499033       29.8812468677
  H         4.3262391456       10.4619750349       31.3601020508
  C         5.6220742581        9.7253746174       30.0049294480
  H        -4.7720476760       10.7079148476       26.2514336644
  H        -5.4850165431       10.7580987428       27.8593407228
  C        -6.3220657658        9.3293123840       26.3248143435
  S        -1.4894456659       17.5810977036       31.4191603342
  N        -1.8699950027       17.3738844260       32.9634150690
  C        -2.2484315788       15.3503935064       34.4254930247
  H        -2.2301809981       13.4704245549       35.3654148268
  C         4.2234515577        8.5305631598       13.1223117969
  N         4.2599191026        7.1999799373       13.0274677041
  O         3.9115901551        5.2819893515       14.2601388375
  H         6.2248157248       10.5293514931       30.4884623096
  H         5.8217479627        9.6687309692       28.9774019318
  C         5.8966130526        8.3816347078       30.7680191099
  H        -5.8744593803        8.7277677755       25.5321809402
  H        -6.8444326607        8.5472738013       26.9135355160
  C        -7.3224092456       10.3269321186       25.7173046139
  C        -2.4372219952       16.2219273268       35.5257493138
  S         4.5897337347        9.4013582982       11.6671583467
  C         4.3524234157        6.4439790780       11.7957630585
  H         6.6312589299        8.5422296891       31.5057431007
  H         5.0850004796        8.0126589323       31.3927543592
  C         6.4777591938        7.2388761934       29.8876292245
  H        -6.9303923248       10.8289879754       24.8617925473
  H        -7.6730669082       11.1332858832       26.3925705961
  C        -8.6032509615        9.7501775074       25.2214712857
  H        -1.9718820492       17.1752767551       35.4033459333
  C        -2.9253180020       16.0501682490       36.8029993151
  H         5.1859634420        6.8019242207       11.2323766305
  H         4.6467615500        5.4596883919       11.9994852167
  C         2.9862374927        6.3750717532       11.0276535683
  H         7.4822204377        7.5822598445       29.6296528196
  H         6.0164796217        6.9717031821       28.9378396505
  C         6.6181981185        5.8033550545       30.5345125932
  H        -8.7961361812       10.0412925099       24.2102613594
  H        -8.3166189184        8.6362289892       25.1774997356
  C        -9.7993767882        9.9091597770       26.0898972535
  S        -3.6949350668       14.6276282618       37.3629303938
  C        -2.8054473155       17.1279451179       37.7564122933
  H         2.2230572543        6.7580969738       11.7278082537
  H         2.8934440946        6.8761957944       10.0838347671
  H         2.5992714959        5.3528623521       10.9233751524
  H         5.6521365535        5.2441573546       30.5099379847
  H         6.9865785097        5.9038891028       31.5693649193
  H         7.3290506405        5.1439428545       30.1142939118
  H        -9.8434548231       10.9219780258       26.3235073919
  H        -9.6456789222        9.4572192489       27.0531292365
  H       -10.6192164491        9.4185435005       25.5755464196
  C        -3.8838642322       15.4636247470       38.8594211741
  N        -3.4484932398       16.7510398827       38.8582925202
  O        -2.1641282283       18.1476483984       37.6561577986
  S        -4.7793997684       14.8281546653       40.2255552635
  C        -3.5625430832       17.6149423243       40.0312603108
  H        -3.3177637034       18.6806576621       39.8432783774
  H        -4.6153685678       17.5653533505       40.3613576481
  C        -2.4442794165       17.1712863563       40.9771127680
  H        -1.8566727733       17.9586217331       41.4617591720
  H        -2.8806984281       16.6586963429       41.7538298008
  H        -1.7500162725       16.5617322608       40.4524547045
  H         7.4485438669       10.7769748178        3.1727182849
  C         8.2525056334       10.0667192732        3.5203726848
  H         7.5721536398        9.2333970643        3.5781247641
  C         8.8702550206       10.4606436606        4.8634305311
  C         9.1382373501        9.9382186305        2.2694353231
  C         7.7074944307       10.5973768621        5.9252196551
  H         9.7082763890        9.8986216454        5.1431426043
  H         9.1413413350       11.4890319780        4.6972310891
  H         9.8339807988       10.7162176131        2.1031005635
  H         8.4489894831        9.9727287139        1.4643062411
  H         9.5781339318        8.9368365436        2.2578624598
  C         7.4471648215        9.3108302861        6.6418383519
  H         7.9810061871       11.3518573445        6.6917327536
  H         6.8600816378       11.0012119800        5.4808603123
  C         6.8066756548        9.5550883198        7.9853933255
  H         8.3741724481        8.7908929085        6.7849043059
  H         6.8722999817        8.6679309634        5.9913813477
  C         5.5110848148       10.3177291664        8.0396836185
  H         7.6258728927       10.0930435799        8.5085768411
  H         6.7746877593        8.6942446037        8.6206634048
  C         4.2899991136        9.5529256257        7.4842377952
  H         5.2730082420       10.5030347229        9.1233770912
  H         5.6580837979       11.2482200758        7.4913211598
  C         2.9636719138       10.4183108953        7.2247603860
  H         3.9788190009        8.8150275466        8.2184148327
  H         4.5219447513        8.9939056808        6.6298754851
  C         3.3659701246       11.7728008514        6.5992963758
  C         2.5447116275       11.0826478410        8.5216509702
  C         1.7577808395        9.6861511863        6.4876184090
  C         3.0459467249       12.7987505647        7.4542101280
  C         3.7552707170       12.2507838436        5.3487708642
  C         2.6063958385       12.3823026389        8.6907973574
  C         2.0181361654       10.4188515951        9.6508207070
  H         2.2792185828        9.2093187997        5.6334305931
  H         1.3931511905        8.7957780962        7.0517105555
  C         0.6367354572       10.6687303835        6.1075632112
  S         3.3282568231       14.3411129347        6.8076289438
  C         3.7528429230       13.5911592424        5.3437872616
  H         3.8854612903       11.5354352171        4.6403990478
  C         2.0889129843       12.9340587249        9.8225274046
  H         1.9496549943        9.3993875900        9.4516822386
  C         1.5754544440       10.9792134848       10.8700891440
  H         0.9509866112       11.5394070593        5.5601448883
  H         0.1044709628       10.8946707115        7.0720083078
  C        -0.2995175151        9.9735596574        5.1543523950
  C         4.2101231721       14.3216392005        4.0874319256
  C         1.5807129539       12.3348121937       10.9757854771
  H         2.0791850981       14.0364934325        9.8436455227
  C         1.1129116297       10.5784627540       12.1003996672
  H        -1.2598460204       10.5690286666        5.0200237509
  H        -0.5163266785        8.9587328889        5.5479316080
  C         0.3189303249        9.8117604305        3.8321736859
  C         4.3039627531       15.7645819702        3.9646862016
  C         4.5119275110       13.4573970967        2.9574491782
  C         1.1185593095       13.0488636182       12.2352187717
  C         0.8190359053       11.7139911888       12.8794002923
  S         0.8646791169        9.0788820365       12.9239595480
  H         1.1501687310        9.0426842698        3.8249580115
  H         0.8532430607       10.6762768120        3.5493918418
  C        -0.7408106384        9.5639827220        2.7202579996
  N         4.0481808922       16.6918122157        4.9520549594
  C         4.5449023086       16.3415170305        2.7107721626
  C         4.7450644044       14.0572589184        1.7208878712
  H         4.6889606036       12.4320398669        3.0901292875
  C        -0.1268243182       13.9119976287       12.0891970908
  C         2.2139506507       13.8787143607       12.9394486127
  C         0.5540698301       11.3242583703       14.1852580690
  C         0.4146171626        9.9560341679       14.2845611492
  H        -1.1383345153        8.5875984606        2.7397287127
  H        -1.6713805962       10.1299268113        2.9793232859
  C        -0.1480619091        9.8911017940        1.3384094695
  S         3.9815837072       18.1835864059        4.1932510074
  N         4.4866114047       17.7236318099        2.7157028429
  C         4.7064713794       15.5973581179        1.5262781449
  H         4.8987112810       13.4412676765        0.9130834823
  H         0.0057218650       14.7453526163       11.3764113354
  H        -0.3086621359       14.3172200821       13.0706375600
  C        -1.3085519928       13.1696778272       11.5579113772
  H         2.4773268069       14.7197492735       12.3900210215
  H         1.7824379859       14.3914534037       13.8103595527
  C         3.4946289354       13.0614608090       13.4329153672
  H         0.5350527925       12.1400262192       14.9260532566
  C         0.2718633649        9.2207129318       15.6025335646
  H         0.7561489157        9.3397088331        1.1130898415
  H         0.0581165232       10.9245716023        1.3862730758
  C        -1.1940368722        9.6087126264        0.2864412633
  C         4.9584148417       16.2503334735        0.2520340648
  H        -1.0347234508       12.6592045950       10.5790812377
  H        -1.5838871495       12.3092658319       12.1121849040
  C        -2.5339539198       14.0314074895       11.3418689004
  H         4.1016843744       12.7390352717       12.6033799859
  H         3.2434954669       12.2836818165       14.1915812377
  C         4.4212789818       13.8882371992       14.3118659654
  C         0.2545441544        7.8195456729       15.7397454977
  C         0.0146425348        9.9759956053       16.8354589977
  H        -1.4626192774        8.6017986189        0.3762532295
  H        -2.1310546943       10.2714577517        0.3075825146
  C        -0.5471174906        9.8443704265       -1.0407464986
  H         4.7161135540       17.2678857080        0.1879327202
  C         5.3058964079       15.7955879561       -1.0131335858
  H        -2.2068374567       14.7897953335       10.6147095400
  H        -2.9427240684       14.3377837465       12.3409376483
  C        -3.6540662572       13.2043230067       10.8061762382
  H         4.5333036728       14.8331499815       13.8134442611
  H         3.9549483451       14.1584363417       15.2584679360
  C         5.7287178539       13.3258524959       14.6787110284
  N         0.4018719449        6.8426793065       14.7303662896
  C        -0.0279312681        7.1112292082       16.9755610012
  C        -0.1236138165        9.3008437067       18.0675839797
  H        -0.1768579514       11.1176981380       16.8169595520
  H        -1.1905488955        9.3929325812       -1.7747854438
  H         0.3804492327        9.2729055585       -1.1883778533
  H        -0.2522914384       10.8632453812       -1.1942937746
  S         5.5311062467       14.1271622969       -1.4657396819
  C         5.4156981277       16.7929028605       -2.1154569872
  H        -3.1776840666       12.6381146643        9.9946424444
  H        -3.9461379133       12.5489915659       11.6468113706
  C        -4.8157189585       13.9851219438       10.1902274636
  H         6.1988868668       12.9067072333       13.7995802001
  H         5.6593257746       12.3786142707       15.2660061011
  C         6.6155208063       14.3598856029       15.3157218568
  S         0.1205911920        5.3540335068       15.3041449901
  N        -0.1039973041        5.7161505440       16.8340387143
  C        -0.2803205254        7.8230545272       18.1670098688
  H        -0.0955850411        9.8410399308       18.9917002851
  C         5.8606910398       14.8200413629       -3.0570348129
  N         5.7746056862       16.1352159278       -3.2166566430
  O         5.2677915685       17.9609784673       -1.9394661756
  H        -5.4334134309       14.4614358691       11.0263032203
  H        -4.5613103207       14.7559923237        9.3564219377
  C        -5.7243874828       12.9796098328        9.6042261953
  H         6.0639280137       15.0353017550       15.9451291352
  H         7.2200678526       13.8957439377       16.0831884854
  C         7.3492172300       15.2485632336       14.3250930037
  C        -0.6397696622        7.0744664399       19.3356660887
  S         6.2891278220       13.8914631741       -4.4738735285
  C         5.7590894078       16.8726188139       -4.4792913699
  H        -5.1332308287       12.4307264344        8.8989187889
  H        -6.0268552111       12.3041707767       10.4728129596
  C        -6.9086077685       13.6646350221        8.8959667161
  H         6.7930145086       15.5905611255       13.4964971116
  H         8.1379679506       14.6872932633       13.7955976726
  C         8.0323661153       16.3976255152       15.0431349016
  H        -0.2213520151        6.0630229110       19.3347538247
  C        -1.0545809872        7.4677830551       20.6262395256
  H         6.3390129429       16.4285301458       -5.2443053289
  H         6.0710680966       17.9031089428       -4.2161382591
  C         4.3942835470       17.0312502522       -5.1088672007
  H        -7.0005934221       13.0616695405        7.9617015459
  H        -6.6455776957       14.7040794579        8.7920480863
  C        -8.2620660124       13.4812215599        9.6781155792
  H         7.3710181944       16.8599109305       15.7677864104
  H         8.8628658216       15.9908141562       15.6076860398
  C         8.6708747795       17.4535113395       14.2100760192
  S        -1.5085210262        8.9623197357       21.1083079426
  C        -1.3022563087        6.4052568973       21.6588387247
  H         4.0581983013       16.0597561553       -5.4546739957
  H         4.2905534306       17.7080217784       -5.9480985522
  H         3.7459196149       17.5418453099       -4.4025715279
  H        -9.0219193437       13.9592626858        9.0288315237
  H        -8.4143690656       12.4874626234       10.0413740049
  H        -8.1922913186       14.1079302713       10.5808599192
  H         9.1629723906       17.0561818349       13.2943053056
  H         7.9695854683       18.2550575910       14.0170907639
  H         9.5025937889       18.0121646263       14.8021405708
  C        -1.9581270357        8.2722014361       22.6997175021
  N        -1.9711355654        6.9330819356       22.6710296886
  O        -1.2711951862        5.1741607571       21.3713471790
  S        -2.5423774343        9.0158833641       24.2014788531
  C        -2.2995264986        6.0512193167       23.7870441631
  H        -2.5585655193        5.0716256599       23.3199371669
  H        -3.1457178397        6.3325180925       24.3626215373
  C        -1.0282444083        5.8912545170       24.6983239225
  H        -1.2069100809        5.0085799127       25.3011534889
  H        -0.9011311222        6.7750768191       25.4744819543
  H        -0.1976127072        5.7144912915       24.0305620388
