352
i =
  H        -4.0445628135       14.0872800944       15.9459887521
  C        -3.6235353854       13.1015579680       15.9917991418
  H        -4.4743228388       12.4735304224       16.3473780390
  C        -2.4567537943       13.1946769033       16.9306157264
  C        -3.1823575896       12.6200128837       14.5739333505
  C        -2.9112808183       13.3000004043       18.4063328975
  H        -1.8402510377       12.2853078980       16.7338080992
  H        -1.7908724734       14.0253355955       16.7522643006
  H        -3.5684720484       11.6522222232       14.2002708654
  H        -3.4240964326       13.3605793869       13.8176423881
  H        -2.1158594910       12.5718605142       14.5391205124
  C        -1.8846939966       13.1767015783       19.5133569998
  H        -3.6629668036       12.5213913236       18.5451882433
  H        -3.5496520347       14.1842117866       18.6408324007
  C        -2.4462387573       13.0611822134       20.9716983791
  H        -1.1857404441       12.3689647839       19.2883797955
  H        -1.3123954541       14.0402362949       19.4244915518
  C        -1.3938808273       12.3806483078       21.8490374351
  H        -3.3829481075       12.4477665964       20.8844122015
  H        -2.7536948274       14.1283178651       21.3321500457
  C        -0.1724200039       13.2631104145       22.1380226815
  H        -1.7562084377       12.1767075428       22.8672442933
  H        -1.1388309689       11.4368674124       21.3149328248
  C         1.0282984245       12.7275557705       23.0212359174
  H         0.2459727806       13.6705230882       21.2519134716
  H        -0.5043243556       14.1587892659       22.7089573138
  C         1.4958104485       11.3961739574       22.3376124989
  C         0.4950024531       11.9571224009       24.2120877413
  C         2.1670913846       13.6936382310       23.2296046741
  C         1.1746155002       10.2978763651       23.1283125171
  C         2.0746837138       11.0563619376       21.1174429386
  C         0.5813638193       10.6367203254       24.3003307911
  C        -0.0367569260       12.5266741642       25.3318830967
  H         2.4852257749       14.1011047821       22.2570921998
  H         1.6775328138       14.6149743600       23.6548389323
  C         3.3868547283       13.0954430897       24.0206312253
  S         1.6211160663        8.8245289159       22.3655981521
  C         2.2373351301        9.7014893391       21.0459365014
  H         2.3692253272       11.8405587350       20.4071996104
  C         0.2320723413        9.9690085242       25.4977820216
  H        -0.1671813491       13.6042994643       25.3942390444
  C        -0.5329784021       11.9037832350       26.4601416721
  H         3.7849787838       12.2266671631       23.4066286622
  H         3.0166789384       12.8187925255       25.0318669659
  C         4.5596448941       14.0216063538       24.3140679332
  C         2.7601651950        9.0140229020       19.8448070573
  C        -0.3734757164       10.5660993349       26.6080233303
  H         0.2139370457        8.8175434757       25.5445967764
  C        -1.0356666486       12.3088087172       27.7171966551
  H         5.1367266451       13.5065553185       25.0231845099
  H         4.2197029978       14.8533927541       24.8766173071
  C         5.3847937282       14.5004342651       23.0937607464
  C         2.6492506411        7.6240407049       19.6341535602
  C         3.1135309681        9.7786707974       18.6542991739
  C        -0.9128534531        9.8771981399       27.8243345178
  C        -1.2107373671       11.1849065732       28.5293026521
  S        -1.3215314925       13.7503920606       28.5223435886
  H         5.9307208726       15.3701578656       23.3898202264
  H         4.6312316502       14.8419089332       22.3860824694
  C         6.3734250875       13.5437193462       22.4587766725
  N         2.2093297978        6.7364008122       20.5574464514
  C         2.8694894249        7.0166442982       18.3863100306
  C         3.2951481614        9.2243422386       17.3910743611
  H         3.2639523797       10.8683605563       18.8059015690
  C         0.1189328759        9.0342448625       28.5832449212
  C        -2.2350814915        9.1566125763       27.4994924397
  C        -1.7186726391       11.5665709814       29.7818905110
  C        -1.7039654928       12.8842304552       29.9698836156
  H         7.0943619220       14.2384126443       21.9330934377
  H         6.9085525171       12.9600656144       23.1871377323
  C         5.9338823026       12.5048913211       21.3872820972
  S         2.0930355228        5.2521908210       19.9122215111
  N         2.7418581316        5.6387842109       18.4845070784
  C         3.1745162465        7.7667031858       17.2007611221
  H         3.6286267212        9.9139905390       16.5686661241
  H         0.5892844075        8.3268771310       27.8683472138
  H        -0.3849726902        8.5117962746       29.4427546893
  C         1.3583015017        9.8636669679       28.9698274839
  H        -2.0470903700        8.5674855823       26.5796568011
  H        -2.5148476293        8.5060147098       28.3657790583
  C        -3.4783126291        9.9842510678       27.1675109286
  H        -2.0034805930       10.7950356756       30.4779507300
  C        -2.0601696859       13.5427330012       31.2811661978
  H         5.0017079948       12.2029358462       21.6611482210
  H         6.7057142502       11.6611492288       21.4627964511
  C         5.8963489533       13.0603042746       19.9936267436
  C         3.4101017811        6.9876532403       15.9606498610
  H         1.9187426828       10.2510977335       28.0983303422
  H         1.1186213554       10.6961003139       29.6198626461
  C         2.2943819041        8.9339004534       29.7567038340
  H        -3.1969910577       10.6753305315       26.3733832689
  H        -3.7124728049       10.6467735763       28.0021860883
  C        -4.7363171328        9.2595971482       26.8359512387
  C        -2.0959810868       14.9871256558       31.5447723597
  C        -2.1255671759       12.7183318851       32.5402019358
  H         5.5052647520       12.1854512548       19.4270973159
  H         5.1014560922       13.8079952654       19.8648027128
  C         7.2743197031       13.3133940389       19.3616517834
  H         3.3816950601        5.9039800686       16.0481060285
  C         3.7013712263        7.4171369878       14.7280739467
  H         2.4613970210        7.9527825798       29.2423620548
  H         1.7317841214        8.5121260677       30.6169256100
  C         3.5896660344        9.6273831000       30.2419237656
  H        -4.6471194939        8.7835467096       25.8586742315
  H        -5.0978847623        8.3886551845       27.3890218039
  C        -5.7980582757       10.2988391120       26.8398400824
  N        -1.8126942837       15.9217932505       30.6041668683
  C        -2.3518358391       15.5255736870       32.7930638441
  C        -2.3738294049       13.2753295829       33.7831780625
  H        -1.9166462607       11.6463721154       32.4372380633
  H         7.3870381589       12.6584671966       18.5143734588
  H         7.3532820533       14.2947912342       18.9677276177
  H         8.1138150906       13.2657949561       20.0567672086
  S         4.0680007701        9.0043111786       14.2964082315
  C         3.7043412104        6.4564884267       13.6114551451
  H         3.6187450928       10.6159378552       29.9257526499
  H         3.5521415480        9.6333947601       31.3639586273
  C         4.8685013103        8.8802392288       29.8947745071
  H        -5.5584299827       11.0422280523       26.0589568311
  H        -5.7078186588       10.7398562511       27.8768491127
  C        -7.2570756747        9.7958426924       26.5895363176
  S        -1.8348677341       17.4172871566       31.3088312921
  N        -2.2156423816       16.9074809030       32.8290632557
  C        -2.5360758605       14.7337949980       33.9673732231
  H        -2.4377244528       12.6244021174       34.6200767905
  C         4.2661511583        8.3634802902       12.6286591711
  N         4.0965293602        7.0151865510       12.4675584500
  O         3.6805146117        5.2310221017       13.7479479320
  H         5.7637905727        9.3896820597       30.0988376813
  H         4.8407040957        8.6186276913       28.7919125176
  C         5.0138331129        7.5372612897       30.5381997218
  H        -7.2982890986        8.6842924376       26.6722394983
  H        -8.0182584853       10.1943018452       27.3535769416
  C        -7.7395154342       10.1768766132       25.1462053547
  C        -2.9466149931       15.4712368603       35.1368328607
  S         4.5829693592        9.2963121848       11.1641071866
  C         4.1824718726        6.3717820512       11.0881932373
  H         5.3046550233        7.6613457876       31.5884500539
  H         4.1010369150        7.0775743081       30.7331589119
  C         6.0837435211        6.7013323233       29.8632466465
  H        -6.9497239304       10.0399817175       24.3786590360
  H        -7.9605580910       11.1850864207       25.1336321346
  C        -8.9869158542        9.4294645233       24.7483211286
  H        -2.7105410352       16.5117944460       35.1561895088
  C        -3.4438173349       15.0525424457       36.3590219071
  H         5.0539577349        6.8284567572       10.5021367886
  H         4.3673128895        5.3260735859       11.1428722399
  C         2.8205689373        6.5479172936       10.4031737235
  H         7.0157579140        7.2176686114       29.6242493604
  H         5.7443662182        6.5030363490       28.9052568121
  C         6.2470965081        5.3648001824       30.5905314026
  H        -9.3116109620        9.9991298597       23.8733915090
  H        -8.7320067931        8.4100079981       24.3581536533
  C       -10.1223469556        9.3969631002       25.7040155200
  S        -3.9037185650       13.4035535719       36.7678643653
  C        -3.6030405062       16.0120695883       37.4888720681
  H         2.5415306814        5.5533324936       10.1175471808
  H         2.1065894193        6.8019223722       11.1971825671
  H         2.8357536276        7.2256746891        9.5425620684
  H         6.4229062668        5.5159314568       31.6962387807
  H         7.1541923243        4.8845281050       30.2027773637
  H         5.3673380307        4.7639238199       30.4205541827
  H       -10.9531983148        8.8611304979       25.2260949775
  H       -10.5971417839       10.4078076906       25.9851523042
  H        -9.8491703829        8.8573221506       26.6046774128
  C        -4.3780573612       14.0650513648       38.3085777038
  N        -4.2601442803       15.3645116225       38.4710637735
  O        -3.1475345738       17.1732618847       37.5693248359
  S        -5.0573605319       13.1327686228       39.6170417664
  C        -4.6590898207       15.9950050539       39.6306647974
  H        -4.8839901631       17.0418659827       39.3794946865
  H        -5.5623262288       15.4872604456       40.0546269950
  C        -3.5874417013       16.0500823570       40.7051861181
  H        -3.9481202620       15.4268168504       41.5069572514
  H        -2.7020912718       15.6535355034       40.3539343287
  H        -3.4975957007       17.0081469648       41.1764835518
  H         7.0609565383       11.1050299643        2.9738628037
  C         7.7849973303       10.3556249954        3.1611374683
  H         7.2044579170        9.4179414880        3.2234503912
  C         8.6397788654       10.5358734514        4.4324748264
  C         8.6279632343       10.2547917172        1.9124821995
  C         7.7861474985       10.7879569650        5.6836922673
  H         9.3363846549        9.6643129114        4.5172795976
  H         9.2735173404       11.4185004520        4.3011869549
  H         9.6122839828        9.9700601902        2.0734712245
  H         8.6279012225       11.3120081790        1.5018122286
  H         8.0826733841        9.8267696876        1.0827151329
  C         7.3716401912        9.5094631560        6.4259071040
  H         8.3009390697       11.4452976415        6.3229784799
  H         6.8744184136       11.3132763238        5.3690950863
  C         6.7064133689        9.7019315251        7.7834627546
  H         8.2454942326        8.9538370345        6.6027795775
  H         6.8008421971        8.9528107387        5.7001230085
  C         5.3902968699       10.4765102096        7.6822387885
  H         7.3534806841        9.9664731707        8.6955537830
  H         6.5454915064        8.6690067012        8.1483424486
  C         4.2692020550        9.6975472042        6.9339804027
  H         5.0258957977       10.6016468462        8.6979473512
  H         5.5067606316       11.4437020575        7.2270542575
  C         2.9285517631       10.4236187695        6.7846159083
  H         4.1375843094        8.7679029110        7.4705456537
  H         4.6751896322        9.4157789286        5.9212990459
  C         3.1964055966       11.7255242255        6.1380529829
  C         2.3913333274       11.0561654625        7.9975852346
  C         1.9829390961        9.4753934745        5.9355398662
  C         2.9049525065       12.8288488890        6.9174215757
  C         3.4274180601       12.0914991837        4.8123842376
  C         2.4202850071       12.4092765946        8.0962450785
  C         1.9427965659       10.3962479255        9.1444455632
  H         2.6311514124        9.2507829801        5.1126065910
  H         1.7974074037        8.4974954640        6.3411407817
  C         0.7637344245       10.0932893608        5.2986935900
  S         3.2273027256       14.3452741160        6.0908312963
  C         3.6495343042       13.4012661305        4.6736274856
  H         3.5782602506       11.3075203173        4.0475899908
  C         2.0891401742       12.9476267075        9.3072261828
  H         1.8239635490        9.3164428770        9.0419009843
  C         1.6244385959       10.9540826567       10.3339121867
  H         1.0539716600       11.0169056623        4.9590210250
  H        -0.0048532560       10.3597692317        6.0158624861
  C         0.1498976310        9.1331185458        4.2371939397
  C         4.2062546354       14.0823117651        3.4706263717
  C         1.6924934232       12.2591128295       10.4655279680
  H         2.2640369629       14.0418322605        9.4380681477
  C         1.2311598767       10.5029116088       11.5944385669
  H        -0.2631597564        8.3150337626        4.7957436140
  H         0.9313316535        8.8520475275        3.5364643929
  C        -0.8743802314        9.9712552293        3.4450745875
  C         4.0778808472       15.4766767501        3.1767730581
  C         4.7567012446       13.2635235659        2.3663065844
  C         1.3688372660       12.9467647024       11.7497408530
  C         1.1474980154       11.6081315355       12.4391186934
  S         0.8126103248        9.0432688765       12.2807149646
  H        -0.4213939687       10.7486977155        2.8596018830
  H        -1.4884537452       10.5072903665        4.1101354900
  C        -1.8392442679        9.1326352894        2.5079133502
  N         3.6284787753       16.4451350223        4.0334251836
  C         4.4354545146       16.0618778690        1.9823753325
  C         5.0658529759       13.8451548462        1.1044827375
  H         4.8584471919       12.2491978507        2.5726755153
  C         0.0133423693       13.7952308121       11.5309369424
  C         2.6068223336       13.8444837869       12.3695511601
  C         0.7723608314       11.1932019765       13.7567676038
  C         0.6564156198        9.8246552124       13.8226192010
  H        -2.3867594781        8.4952945441        3.1720380072
  H        -2.6015738287        9.8860245462        2.2149413907
  C        -1.2359181446        8.4130764152        1.2519502117
  S         3.7020508683       17.9130541761        3.3827442539
  N         4.2480961623       17.3839681405        1.9792401863
  C         5.0188843590       15.3260973747        0.9007348126
  H         5.3414239951       13.1767050166        0.3271526347
  H         0.1266934522       14.6780894136       10.8837691500
  H        -0.3261156376       14.1144366368       12.5932083513
  C        -1.2376158128       12.9973831063       11.1657816236
  H         2.9385797333       14.6163727088       11.7123686565
  H         2.1871839459       14.3357846365       13.2458930841
  C         3.7389791252       13.0833883439       12.9361211928
  H         0.6869811016       11.9135586823       14.5262123463
  C         0.2958735442        9.0334967007       15.0952774433
  H        -2.0490780750        7.9752371591        0.7171320834
  H        -0.6576410187        7.5811051820        1.7035802242
  C        -0.4516598072        9.2872129878        0.2702766502
  C         5.1894377026       16.0135010567       -0.3367089488
  H        -0.9541639875       12.1764240154       10.4868575023
  H        -1.4167436519       12.4204930827       12.0965899498
  C        -2.3963054800       13.7743903690       10.6583534039
  H         4.0951458750       12.3022963967       12.3071770363
  H         3.4984820967       12.6781465149       13.8519089706
  C         4.9053710061       13.9980701512       13.3678669536
  C         0.1096508904        7.6262410047       15.2244045239
  C         0.1694354007        9.8622254174       16.3566370809
  H        -1.0004360113       10.1734700324        0.2284336754
  H         0.4677166062        9.5388887908        0.7668551220
  C        -0.2643703632        8.6178431968       -1.1077254322
  H         5.1992057569       17.0404669830       -0.2919678878
  C         5.3894095639       15.5443675148       -1.6039198539
  H        -1.9990503506       14.4275603446        9.9356497400
  H        -2.7461838700       14.3686738273       11.5373790477
  C        -3.4798535739       12.8956564798        9.9892304619
  H         5.5454787892       14.2097666863       12.5059634874
  H         4.3360261480       14.8582564326       13.6057592975
  C         5.8111032635       13.6842531723       14.5592824213
  N         0.3054963429        6.7388861408       14.1625459898
  C        -0.2405137832        6.9782133564       16.3980950743
  C        -0.2072661839        9.2141268851       17.5220332035
  H         0.3478104916       10.9061561126       16.3718598524
  H        -0.9442740028        9.0494605041       -1.8643034485
  H        -0.4563485854        7.5737024254       -0.9726406800
  H         0.7576577296        8.6358175449       -1.3805992757
  S         5.6838556611       13.8852381774       -2.0278395834
  C         5.4810344371       16.5482841791       -2.7096527670
  H        -3.2964431385       12.7968024936        9.0102643290
  H        -3.5625822789       11.9730166731       10.4871455747
  C        -4.8857560843       13.4969961066       10.0957184065
  H         6.3138168606       12.6824328842       14.4674481772
  H         5.4230127134       13.6793161708       15.5766386846
  C         6.9667370083       14.6409329120       14.8111301591
  S         0.1507389148        5.2541528551       14.7736284018
  N        -0.2582684271        5.6018110033       16.3068269455
  C        -0.3936791384        7.7346995262       17.5523359543
  H        -0.2975865699        9.7137705134       18.4706240682
  C         5.8425300343       14.5448419646       -3.6752047878
  N         5.8115169144       15.8907380496       -3.8490530428
  O         5.4648844727       17.7528090732       -2.6200308090
  H        -5.2640128345       13.4768291092       11.0733267619
  H        -4.8371722065       14.5368080384        9.9686000612
  C        -5.7898565243       12.8250107665        9.1015921325
  H         7.4339642993       14.3023448022       15.6779694231
  H         7.6134537648       14.5538411865       13.8942571824
  C         6.5004529485       16.0689914177       15.0702200619
  C        -0.6347420988        6.9029763767       18.7061742461
  S         6.1161696139       13.6943141261       -5.1644308804
  C         6.0049529293       16.6137495260       -5.0804637407
  H        -5.4312142976       12.8128063326        8.0666457417
  H        -5.8216105171       11.7614863802        9.4123196972
  C        -7.2089025607       13.4564128278        9.0498384351
  H         5.8243628609       16.1538861934       15.8788262657
  H         6.0151356601       16.3732082309       14.1192442508
  C         7.5362895720       17.1124838406       15.4201483496
  H        -0.4294893554        5.8532820030       18.6730853866
  C        -1.1334490508        7.1367258382       19.9878877578
  H         6.7952880629       16.0857505782       -5.7120725683
  H         6.4288694599       17.6345455304       -4.9721036976
  C         4.6807871080       16.6672032774       -5.7776027921
  H        -7.6075705102       13.1227310258        8.1330177851
  H        -7.1345921544       14.5153693318        8.8248977922
  C        -8.1071009681       13.1339808454       10.2365017781
  H         6.9691102170       17.9355606721       15.8735993152
  H         8.1536900079       16.6900436429       16.1723043072
  C         8.3141399540       17.6110548424       14.1768377143
  S        -1.7847603329        8.6673739198       20.5514921716
  C        -1.2344242364        5.9953460401       20.9656610738
  H         4.4714502831       17.3637297826       -6.5906486375
  H         3.8752741078       16.7360616489       -5.0302209297
  H         4.5689580083       15.7585592691       -6.2311681777
  H        -9.0942362663       13.5671422635       10.0723693665
  H        -8.3677184402       12.0659863850       10.3543863425
  H        -7.6930647388       13.2725746706       11.2399022827
  H         7.6102669407       17.9074141859       13.3746472181
  H         8.7848653025       18.5816445364       14.3363256124
  H         9.1744880615       16.9075160830       13.8998215033
  C        -2.0626168064        7.7642165284       22.0029783475
  N        -1.7866992540        6.4488816980       22.0953271363
  O        -0.8882534812        4.8670751329       20.7772706557
  S        -2.8387695210        8.4566209864       23.4478224131
  C        -1.9824727043        5.6779052391       23.3147766878
  H        -1.9071654434        4.6361533007       22.9529002189
  H        -3.0124743600        5.7711431701       23.7938959313
  C        -0.8156730511        5.8635918454       24.3258846538
  H         0.1256275681        5.7582992145       23.7982658618
  H        -0.8702088355        5.1212053907       25.1578917918
  H        -0.9068304351        6.9019087913       24.6048974070
