352
i =
  H        -3.7945230909       14.3049241411       16.0821122378
  C        -3.6176418417       13.2797297508       16.2652986974
  H        -4.5320977000       12.7859154749       16.5592783644
  C        -2.5565755558       13.2620476531       17.3703032181
  C        -3.1210861993       12.6563076120       14.9731180098
  C        -3.1453287455       13.2712019817       18.7694108829
  H        -1.9511256389       12.3650807890       17.2601251730
  H        -1.8616730536       14.0859986492       17.3073586441
  H        -3.9884387045       12.7361002447       14.2647442667
  H        -2.2756892289       13.2201100469       14.5997739974
  H        -2.9543409896       11.6169193032       15.2047330875
  C        -2.3938813564       12.4459032220       19.7430433040
  H        -4.1838808026       12.9832291904       18.9226037759
  H        -3.1769301909       14.2542795749       19.1358740631
  C        -2.9139904519       12.5730011389       21.1621663536
  H        -2.3222801264       11.4146948577       19.2961870494
  H        -1.3703185505       12.7036829986       19.6624390563
  C        -1.9501180006       12.1062526103       22.3442862335
  H        -3.8167160195       12.0649231647       21.1889188836
  H        -3.2473237277       13.6547261526       21.3711664615
  C        -0.8713375255       13.1754745584       22.6152179468
  H        -2.6124650473       12.1121718966       23.2009291903
  H        -1.5050441293       11.0795746141       22.2815517534
  C         0.3889147070       12.6410565036       23.3185628416
  H        -0.4216819368       13.4710983471       21.6756528597
  H        -1.3158024773       13.9610270365       23.2121451025
  C         0.8384827009       11.2709256939       22.7040090921
  C         0.0660869416       11.9385164475       24.5902818761
  C         1.6255614563       13.5852307888       23.2538831257
  C         0.7495325187       10.1863485625       23.5878559017
  C         1.2542885381       10.8080668513       21.4338537102
  C         0.2320684196       10.6477630701       24.7392215295
  C        -0.4192495734       12.6152026052       25.6870289639
  H         1.6917125185       13.9013893874       22.2117608757
  H         1.4290874262       14.4886042000       23.8093085895
  C         2.9715226362       13.0286024212       23.7135409709
  S         1.3164368388        8.6818794006       22.9478371428
  C         1.6438741576        9.5265508271       21.4444645239
  H         1.3797865647       11.5079575039       20.5825994906
  C        -0.1309613485       10.0279402581       25.9544280099
  H        -0.5603672609       13.6543114609       25.6659444554
  C        -0.7828570577       12.0076016892       26.8722704878
  H         3.4173452611       12.3418057093       23.0035215251
  H         2.8688817455       12.6207830727       24.6549270732
  C         3.9308374549       14.2288041596       24.0355633781
  C         2.1763658932        8.8817779040       20.2025475451
  C        -0.6435140353       10.6946993503       27.0614855932
  H        -0.2528975156        8.9692599611       25.9736248994
  C        -1.1729600659       12.3826608647       28.1333853934
  H         4.8276238114       13.9674357573       24.6522834700
  H         3.4775239293       14.9520611842       24.7583146657
  C         4.3030207680       15.0618357286       22.8053413888
  C         2.0776539369        7.5402810879       19.8476235098
  C         2.6360141134        9.7403442818       19.0484146435
  C        -0.9856271450        9.9694015433       28.3192886769
  C        -1.2826444686       11.2755537830       29.0029681260
  S        -1.5732413318       13.8664471273       28.8393982992
  H         4.6871599006       15.9502435030       23.1734054739
  H         3.4959536177       15.2596142327       22.1381017316
  C         5.4919245111       14.3142150701       22.1858873650
  N         1.5530910965        6.5745248211       20.6948292185
  C         2.3983649823        6.9407613533       18.6194850248
  C         2.9133792856        9.1472203390       17.7436947231
  H         2.7855474368       10.8075908536       19.1704554330
  C         0.1481308848        9.1769792996       29.0273768132
  C        -2.2406104061        9.0523606242       28.2080597796
  C        -1.6015596075       11.7115043152       30.2575443377
  C        -1.6782847807       13.0724661788       30.3526876906
  H         6.3508454391       15.0059758095       22.1267237962
  H         5.7149947638       13.4945964406       22.8158378743
  C         5.0578781481       13.8414988591       20.7995636527
  S         1.6521047669        5.0562783366       20.0382903827
  N         2.2673897288        5.5432684714       18.6116662983
  C         2.6965333154        7.7074838388       17.4338864574
  H         3.1911731803        9.8493981253       16.9836036411
  H         0.5769225142        8.3930401011       28.3987409918
  H        -0.2045044673        8.5808799660       29.8376355470
  C         1.3314119242       10.0102597773       29.3685502065
  H        -2.0156765959        8.2253372144       27.6158100287
  H        -2.4502173297        8.6541400518       29.1845227723
  C        -3.4856773694        9.7235297505       27.6254769618
  H        -1.5402265106       11.0372810172       31.0793022932
  C        -2.0061699470       13.8836375149       31.5757026370
  H         4.5306334964       14.6000795619       20.2210922128
  H         4.3312533261       13.0286352972       20.9579586654
  C         6.1618553001       13.4275117878       19.8136468223
  C         2.9369203616        7.0972653875       16.1798602932
  H         1.6236207604       10.5156168487       28.4719119330
  H         0.9566860790       10.6408943485       30.1317191755
  C         2.4526734323        9.0781686901       29.8736048670
  H        -3.2570215201       10.2463011170       26.7076168273
  H        -3.7437995848       10.6215857431       28.2555749236
  C        -4.7891235464        8.9613753626       27.4180106397
  C        -2.0819401659       15.3304233669       31.7949345801
  C        -2.0998942725       13.1786237432       32.8693022008
  H         5.7473297849       12.8689348084       18.9692644372
  H         6.5567891912       14.4164716922       19.4534149967
  C         7.2769679476       12.7214659236       20.4306610929
  H         2.6647967016        6.0473165573       16.1068674798
  C         3.3384180315        7.5322711828       14.9420138300
  H         2.8339648537        8.5202570447       28.9882513037
  H         2.0941392122        8.3934802505       30.6853110319
  C         3.5098181125        9.9025949466       30.5910079305
  H        -4.5034123907        8.0993478113       26.8975305648
  H        -5.1222772456        8.5482255743       28.3772211596
  C        -5.8659369141        9.7609784730       26.7721553134
  N        -1.6991078343       16.1997746365       30.7936824319
  C        -2.3451203590       15.9433799992       33.0155671567
  C        -2.4554013709       13.7925362658       34.0863944610
  H        -1.9338604984       12.1584740424       32.8226862868
  H         6.9367908560       11.9678365235       21.1692507369
  H         7.8124038651       12.2260854274       19.6344840392
  H         8.0396262156       13.4090870385       20.8184002551
  S         3.7020692689        9.1450209264       14.4666482627
  C         3.5104177483        6.4516078587       13.9311366774
  H         3.6428824419       10.8827952127       30.1499659694
  H         3.1361014464       10.1372340664       31.5961510608
  C         4.8972181232        9.3323857778       30.5294169093
  H        -5.2888294905       10.3398862418       26.0906228834
  H        -6.4026539577       10.4564192789       27.4270931261
  C        -6.9994409196        9.0108420901       26.0421280747
  S        -1.5245934987       17.6401314124       31.5206808186
  N        -2.2136448842       17.3164872587       32.9231291812
  C        -2.6859160056       15.2123957936       34.1513433667
  H        -2.3659159940       13.1522530925       34.9614743960
  C         3.9287573373        8.3640170674       12.8790613302
  N         3.9600472720        7.0222896523       12.7851925352
  O         3.5069094610        5.2982290937       14.1272649710
  H         5.5496273299       10.0357415630       30.8759596126
  H         5.2092567881        9.3784971946       29.4257750771
  C         5.1549227146        7.9693187788       31.1342418045
  H        -6.5480249888        8.2738283140       25.3797076769
  H        -7.6112471894        8.3967520025       26.7265448435
  C        -7.9409732516        9.8524463087       25.1894684422
  C        -2.9563458881       15.9076148862       35.3626477530
  S         4.3120260663        9.2939144294       11.4326701942
  C         4.0066536901        6.2433298755       11.5116211641
  H         5.9554174023        8.0344674434       31.8092492564
  H         4.3032429280        7.6594087184       31.7142242628
  C         5.4858646508        6.8911752925       30.0892769297
  H        -7.4897004718        9.8453361567       24.1918717839
  H        -7.9857882109       10.8222452189       25.4962328409
  C        -9.3493784048        9.2513834626       25.0111261411
  H        -2.9720839094       16.9912807372       35.3054709304
  C        -3.5482479411       15.5367887022       36.5421670951
  H         4.9223454763        6.5220543977       10.9938034307
  H         4.0577782540        5.2100527123       11.7898756204
  C         2.7621482541        6.3941216175       10.6890954228
  H         5.1194847972        7.2552070245       29.1467851606
  H         4.8035686546        6.0473223567       30.4647710636
  C         6.8376419830        6.3993669587       30.2085197716
  H        -9.8326514633        9.8044916942       24.2045798223
  H        -9.3633654638        8.3295924744       24.5868807518
  C       -10.1442077771        9.5147532763       26.2511646203
  S        -4.1692743282       13.9701683938       37.0010025826
  C        -3.6622171995       16.5612355727       37.5819451769
  H         2.3816400647        5.4171920751       10.5044433523
  H         2.0159348837        7.0665894601       11.2659330377
  H         2.9981669983        6.8054319823        9.7238649799
  H         7.5601469276        7.1796279126       29.8969126312
  H         7.0571220169        5.6453963437       29.4626447901
  H         7.0883641740        5.8997377155       31.0973252902
  H        -9.5166988483        9.9163000195       27.0375639739
  H       -10.6973919848        8.6110868756       26.5552505148
  H       -10.8034109733       10.2954611927       26.0557592841
  C        -4.7806173018       14.7553467388       38.4262618274
  N        -4.3537418191       16.0498472481       38.5818392299
  O        -2.9667950805       17.6075450800       37.6388053873
  S        -5.4579816884       13.8044507637       39.7272196369
  C        -4.6431874985       16.7557639384       39.8583171780
  H        -5.3240013140       17.5747926468       39.8323337903
  H        -5.1562679755       16.1180025520       40.5887615076
  C        -3.2992577966       17.1267227879       40.5752931253
  H        -3.0131579597       16.5730032722       41.5189494479
  H        -2.4486864635       16.8568997927       40.0040694142
  H        -3.1766143175       18.1739330631       40.7963995355
  H         7.1713533914       11.5599879591        3.8678229978
  C         7.5180991477       10.5145293473        3.8640082440
  H         6.5742210546        9.9439224130        4.1565517090
  C         8.5319599300       10.4363943273        4.9859866200
  C         7.8779939231        9.9870259846        2.4917831442
  C         7.9847229808       10.5954189791        6.3813524209
  H         9.1244468113        9.5109371409        4.8745122956
  H         9.3573300742       11.1635752337        4.8096459518
  H         8.8338698487        9.5357493339        2.4129055954
  H         7.8065804554       10.7930557817        1.7754196943
  H         7.0893631906        9.3122268810        2.1763036377
  C         7.2579736736        9.2957791061        6.8091171253
  H         8.8921983868       10.8068953785        6.9824750720
  H         7.4345770990       11.5270091255        6.4454178822
  C         6.5211541314        9.3404084745        8.1447788674
  H         7.8490591581        8.3529291238        6.7148133161
  H         6.4848383788        9.2174778931        6.0158225003
  C         5.3034198965       10.1996814312        8.1321417805
  H         7.1738009380        9.9615095269        8.7780361930
  H         6.2824798580        8.3380676164        8.5010606730
  C         4.0665049724        9.4406715034        7.7848212445
  H         5.2090948389       10.8089979830        9.0079324460
  H         5.4882629412       10.9461469213        7.3801148691
  C         2.8916226347       10.3809107084        7.3543804446
  H         3.8211583877        8.7041653102        8.5570965128
  H         4.3657437726        8.8472238605        6.9137180393
  C         3.2330335123       11.7339974329        6.6342984780
  C         2.3713602586       11.1451146521        8.5184890676
  C         1.7195554347        9.6266204027        6.5772609672
  C         2.9052566645       12.8471454361        7.3936464803
  C         3.7173783073       12.1162719962        5.3482569750
  C         2.3604344722       12.4837813343        8.5683851402
  C         1.8833343377       10.5379317640        9.6368357564
  H         2.0006546180        8.7541135235        6.0519387582
  H         0.9355125582        9.2832110194        7.2779434041
  C         0.8390648755       10.5401434544        5.6504875081
  S         3.1994558172       14.3751419112        6.6442713754
  C         3.7987560532       13.5158772349        5.2795017160
  H         4.0174452378       11.3675704862        4.6148099490
  C         1.8648487762       13.1041268709        9.7124037253
  H         1.9373605032        9.4655897214        9.6218420691
  C         1.4089618786       11.1125492764       10.7295839896
  H         1.4265545015       10.7229983593        4.7751818141
  H         0.5860002131       11.4869975784        6.1793372238
  C        -0.4676885393        9.8687462403        5.1495090246
  C         4.2209528761       14.2654081592        4.0456113842
  C         1.3127474645       12.4380287905       10.7999395340
  H         1.8642682906       14.2031826454        9.8775113111
  C         0.9404729593       10.6021562067       11.9607561595
  H        -1.2263555469        9.7702709238        5.9341468578
  H        -0.2239903558        8.9004504879        4.8431949963
  C        -1.1732762558       10.4913550700        4.0422492419
  C         4.3038164753       15.6674623623        3.8645448898
  C         4.6111026333       13.5314702387        2.8336194651
  C         0.8981463600       13.0712590897       12.1643528758
  C         0.5534160013       11.6330891001       12.7997283514
  S         0.7790898761        9.0000111104       12.6137445564
  H        -0.5006339301       11.1030455235        3.4278767125
  H        -1.8978126061       11.2038806613        4.4103693555
  C        -1.8589250154        9.5166438462        3.0818744142
  N         4.1202498931       16.6491800751        4.8286695277
  C         4.6090166310       16.2837107029        2.6611720497
  C         4.8858314976       14.0959431584        1.6252726007
  H         4.7368408634       12.4829610944        2.8833140557
  C        -0.4340458378       13.8663971085       12.0714060643
  C         2.0417269240       13.8337618024       12.8903232021
  C         0.0546651514       11.1499794252       14.0387044457
  C         0.2138542688        9.7988546045       14.1126209593
  H        -2.2835534257        8.7372431580        3.6911006017
  H        -2.7535851946       10.0838637974        2.7194170482
  C        -1.1576098038        8.9663247776        1.9006778585
  S         4.0193818359       18.0927950184        4.1539005857
  N         4.4924185577       17.7083968164        2.6873879493
  C         4.8856105260       15.5911693237        1.4660117144
  H         5.1118680573       13.4120358092        0.8267170706
  H        -0.4097638647       14.6429053187       11.3891085149
  H        -0.5859914971       14.2761386372       13.0302542721
  C        -1.6479387557       12.9205821090       11.6167157278
  H         2.3449160422       14.5849045717       12.1834371261
  H         1.7762694502       14.3461780083       13.8332493022
  C         3.2513759701       12.8732732927       13.3009213187
  H        -0.2435398901       11.8240098630       14.8647132327
  C        -0.1033750287        8.9776736681       15.3474074313
  H        -1.6513265825        8.0896000284        1.5074715850
  H        -0.1953319579        8.6879497495        2.2536097202
  C        -0.9687099780       10.0816750503        0.8397101166
  C         5.0480975236       16.3146682311        0.2222175036
  H        -1.4304489214       12.2618520376       10.7985486784
  H        -1.8734024175       12.2664197529       12.4707603792
  C        -2.7792374135       13.7839239379       11.1134313652
  H         3.5727633986       12.1429881597       12.4976269835
  H         2.8398613981       12.2234563378       14.0629679329
  C         4.4602293751       13.7390547135       13.6218426831
  C        -0.2313894640        7.5827481406       15.4074272712
  C        -0.4027842781        9.6241307429       16.5952408804
  H        -1.9532610148       10.4692600766        0.6624252018
  H        -0.3471700869       10.9183837466        1.3269856338
  C        -0.4196069795        9.5843935320       -0.4974611039
  H         5.0372752451       17.3648788436        0.3520615943
  C         5.4099474137       15.9207221762       -1.0403157377
  H        -2.4250950271       14.4164294957       10.2810918616
  H        -3.0152603853       14.3554143715       12.0055390785
  C        -3.8730312024       13.0092841546       10.4644461860
  H         5.2086590195       13.7994387299       12.8481046875
  H         4.1512888966       14.7732654594       13.6479204493
  C         5.3087286153       13.2614753644       14.8380724722
  N        -0.0568140705        6.7232684169       14.2991683199
  C        -0.6613134663        6.8485342763       16.5271046878
  C        -0.8723197790        8.9443687149       17.7276958870
  H        -0.3309657819       10.6894837402       16.6809287465
  H        -0.3470258182       10.5557885465       -1.1000801835
  H        -1.1634863788        8.9960172382       -0.9839053271
  H         0.5168178383        9.0465502816       -0.4757460145
  S         5.5942399316       14.3151085563       -1.6576221877
  C         5.4591760414       16.9667416760       -2.1052136592
  H        -3.5886914876       12.8961064374        9.4293908983
  H        -4.0272954556       12.1129255513       11.0747099262
  C        -5.1083325192       13.7801974725       10.3571275140
  H         5.6418007339       12.1571754016       14.7781208034
  H         4.6926027989       13.2849369741       15.7072605745
  C         6.6052183117       14.0604977958       14.9515901175
  S        -0.2422740554        5.2139251551       14.7563691481
  N        -0.8088225188        5.5031909805       16.2641693261
  C        -1.0476055556        7.4756314411       17.7144252011
  H        -0.9670098844        9.5860698696       18.5797536370
  C         5.9236145641       15.0466845799       -3.2431681096
  N         5.8337189894       16.4146922850       -3.2634637078
  O         5.2089607351       18.1726582316       -1.9005200047
  H        -5.6863684578       13.7390634541       11.2626155623
  H        -4.7180806122       14.8188925673       10.3091398016
  C        -5.8403464153       13.4700580473        9.0514493039
  H         7.3171389334       13.4104128235       15.3384960280
  H         6.9609640730       14.3742565879       13.9724519473
  C         6.4168261424       15.3250122923       15.7454440833
  C        -1.4317309326        6.7530863695       18.9294631153
  S         6.3804537627       14.2937296787       -4.7560642884
  C         5.7643118273       17.1631217299       -4.5975128224
  H        -5.4759056467       14.0690487618        8.2937392051
  H        -5.5416350750       12.5582779367        8.7497786675
  C        -7.3380324262       13.6207985077        9.0153392562
  H         6.1674847782       15.0050680158       16.7766756534
  H         5.5073174987       15.8728950158       15.4818047521
  C         7.6223499154       16.3295016300       15.9758577733
  H        -1.2886736047        5.6618483816       18.7628724003
  C        -1.8054872154        7.1657682316       20.2112152289
  H         6.3940731692       16.6989966844       -5.3658131855
  H         6.2546851586       18.1449829464       -4.5535340696
  C         4.3363746497       17.3642650544       -5.1030372474
  H        -7.7997280776       13.2416621425        8.0466867395
  H        -7.6152973216       14.6966224782        9.0644528164
  C        -8.1015970670       12.9684371508       10.1986032927
  H         7.1657680158       17.1424709630       16.5455766046
  H         8.4043584182       16.0009626699       16.6306793630
  C         8.1989326130       16.9188144715       14.6630829102
  S        -2.4277369783        8.6912899076       20.6924821611
  C        -1.8727412743        6.1677265526       21.3124474603
  H         3.4460612763       17.3334534987       -4.3966678031
  H         4.1442422313       16.6350059862       -5.8752272076
  H         4.2709900387       18.2845585477       -5.5974119114
  H        -9.0961852542       12.8138582175        9.6876247262
  H        -7.6318289489       12.0426904695       10.7037199101
  H        -8.1365376292       13.7558950560       10.9603254806
  H         8.9751534330       16.2201774347       14.4082884151
  H         7.4580638553       17.0821990540       13.8941645048
  H         8.6672713659       17.8771077978       14.8508241888
  C        -2.5831933233        8.0491175072       22.3005301583
  N        -2.3624781104        6.7087587078       22.4599563067
  O        -1.4143909276        5.0592191758       21.1977575662
  S        -3.1936905197        8.8815947137       23.6709838970
  C        -2.3307135054        6.0128331358       23.7307044553
  H        -2.5846483418        4.9672193545       23.6686963092
  H        -3.1782368177        6.4007621523       24.2573389621
  C        -0.9509806928        6.1096537110       24.4285326310
  H        -0.1483489504        6.3877783680       23.7762640742
  H        -0.5143834662        5.2323817424       24.8133327024
  H        -0.9839138834        6.8457766671       25.1355467387
