352
i =
  H        -3.7228435143       14.8899395593       17.0502242749
  C        -3.3786287316       13.9355644938       16.7918119703
  H        -4.3036265678       13.4148586869       17.1126707590
  C        -2.1366859666       13.5022082703       17.5284892814
  C        -3.1380536325       13.6757976866       15.3226638792
  C        -2.3643850040       13.5900655215       19.0632309654
  H        -1.9656259277       12.4148748435       17.2862550478
  H        -1.1770638291       14.0139831608       17.1999213815
  H        -2.1263755476       13.7090989789       14.8564476185
  H        -3.4204731935       12.6014953064       15.2699915824
  H        -3.9277651155       14.1490682021       14.6325161246
  C        -1.0611050370       13.5366980335       19.8892317217
  H        -2.9915959001       12.7515742577       19.3232581368
  H        -2.9630339804       14.4730921979       19.2679161593
  C        -1.5560961854       13.7525199199       21.2742413747
  H        -0.5174135107       12.6012772057       19.6813997645
  H        -0.4162894825       14.3554683220       19.7244111395
  C        -0.8058395736       13.0339637997       22.3495006460
  H        -2.5919268868       13.4626594168       21.2981049690
  H        -1.6596815505       14.7990259594       21.5688185805
  C         0.3986162967       13.8611576133       22.8063363012
  H        -1.4926651868       13.0238941097       23.2261674633
  H        -0.4834608397       12.0436009104       22.0591453278
  C         1.5917228972       13.0142717428       23.4282261215
  H         0.8025737458       14.5086917835       21.9734175940
  H        -0.0465973924       14.5350945643       23.5279326059
  C         1.9455228925       11.7627952933       22.7057199354
  C         1.0168030009       12.3055239943       24.5916202846
  C         2.7726411236       13.9662999055       23.5996036111
  C         1.4975555876       10.6342654470       23.3665005909
  C         2.4076942490       11.4742136510       21.3932967928
  C         0.8922657583       10.9771722872       24.5839101839
  C         0.4586507139       12.9227849724       25.6676808883
  H         2.8427047981       14.6027654529       22.6527210435
  H         2.5599138160       14.6184361593       24.4547101396
  C         4.0483164769       13.2687900436       23.8927680317
  S         1.7208314432        9.2240903882       22.4919461148
  C         2.3779829904       10.1434188806       21.2021541558
  H         2.5617054978       12.2886277511       20.6832697037
  C         0.4486439887       10.2790915643       25.6601856480
  H         0.5572905956       14.0053150597       25.7155925128
  C         0.0401302427       12.2421281401       26.8006059276
  H         4.2753994723       12.6439097858       23.0462164674
  H         4.0295146574       12.4975827488       24.6585851788
  C         5.2321088027       14.1515903880       24.3254711580
  C         2.6458599662        9.4678433133       19.8649766841
  C         0.0055274357       10.8627416032       26.8184270230
  H         0.4948754607        9.2681026893       25.5977433642
  C        -0.3653464325       12.5774244670       28.0093982622
  H         5.7457328169       13.5762530750       25.0751118439
  H         4.8704919214       15.0123499190       24.9061727827
  C         6.0225105511       14.6901594293       23.1085162129
  C         2.6424315449        8.0530403420       19.5946272945
  C         3.1296945894       10.3209343935       18.7460768318
  C        -0.3794303974       10.1397539409       28.1230386361
  C        -0.6157470710       11.4847588108       28.8623791533
  S        -0.5178357585       14.0905969139       28.8046656877
  H         6.5172780351       15.6980843043       23.4008749086
  H         5.1949811546       14.7828175107       22.4326234091
  C         7.0572813758       13.8053782703       22.3798887651
  N         2.3350533196        7.0652615281       20.4892341634
  C         2.8313620896        7.5547174780       18.3176491587
  C         3.3800967893        9.8077750813       17.4738231406
  H         3.3558857615       11.3706212240       18.9113890523
  C         0.7123293739        9.3568475071       28.8741906353
  C        -1.7436954004        9.3985250361       27.8971490167
  C        -1.1077289248       11.8983160990       30.1225808907
  C        -1.0571459245       13.2715167340       30.2516373093
  H         7.9657523286       14.3906849998       22.2185092939
  H         7.2964885869       12.8808995897       22.8142066335
  C         6.5325091403       13.3982603480       20.9789432625
  S         2.3947323077        5.5867245042       19.7308182667
  N         2.7911434869        6.1771730437       18.3003169271
  C         3.1086657567        8.3810235237       17.1827302725
  H         3.5903307882       10.4855866172       16.6342080524
  H         0.6608952843        8.2880205278       28.6994649756
  H         0.5394713079        9.4370863288       29.9231238183
  C         2.1178868902        9.9304820339       28.5919615869
  H        -1.5653237627        8.6477156656       27.1058411288
  H        -1.9082459843        8.8068362946       28.8517705325
  C        -2.9192698191       10.2666302292       27.5675511143
  H        -1.3903269307       11.1497027083       30.8537391725
  C        -1.3514182042       14.0260186509       31.5182039354
  H         5.8252739361       14.1692662645       20.4681606697
  H         6.0430747504       12.4363887662       21.0277120142
  C         7.6763231930       13.0250618275       20.0849258036
  C         3.4056819707        7.7051526957       15.9698941684
  H         2.7140418551        9.3549222951       27.8779929024
  H         2.0803459467       10.9971393041       28.2507521124
  C         2.9005613691        9.9010974868       29.9078333011
  H        -2.6082302984       11.0689928458       26.8489680744
  H        -3.1777677411       10.7484844867       28.4798073308
  C        -4.0725167482        9.4454921622       27.0929296204
  C        -1.3506940244       15.4619582078       31.6607120326
  C        -1.5905075486       13.2725542389       32.7092549006
  H         8.6204162205       12.9638878884       20.6552507839
  H         7.4854180919       12.0282781882       19.7866671913
  C         7.8065773597       13.9407771176       18.9317968037
  H         3.0944329254        6.6255240130       15.9575816268
  C         3.6968614413        8.1516908724       14.7116348836
  H         2.7019022825        8.9905780364       30.4466521435
  H         2.5237843411       10.7062126149       30.5599799718
  C         4.4130313272       10.2935207251       29.6733619658
  H        -3.7903696895        8.9863127398       26.1513937433
  H        -4.2629722916        8.6465851161       27.8137866593
  C        -5.4149281841       10.2570700948       26.8191775575
  N        -1.1837392836       16.3831570713       30.6458537006
  C        -1.5639125843       16.0360186950       32.8728897363
  C        -1.8182474794       13.8908853255       33.9527701452
  H        -1.4271264983       12.2326053761       32.6264003688
  H         7.3765138761       13.4814995961       18.0110770612
  H         7.2191915494       14.8323748989       18.9888803522
  H         8.8188477374       14.3307551038       18.7926750530
  S         3.9443712428        9.7563215916       14.2270227601
  C         3.7969327522        7.1616355103       13.5810368913
  H         4.3600830964       10.8621135047       28.7485443193
  H         4.6765962015       11.0482611610       30.3757234885
  C         5.4851293490        9.2019293904       29.6664286447
  H        -5.2620458816       10.9859447941       26.0186235931
  H        -5.6881170019       10.6896069023       27.7602569580
  C        -6.5669969844        9.3335812232       26.3172883769
  S        -1.4054457342       17.8768727491       31.3014179974
  N        -1.7049419812       17.4183795044       32.8284120525
  C        -1.9582917325       15.3738294054       34.0583811570
  H        -2.0503309078       13.3160656490       34.7837057521
  C         4.2630620957        9.1201238169       12.6640186891
  N         4.1250654068        7.7870518392       12.4891261595
  O         3.5277939181        5.9540043607       13.6677015775
  H         6.4791554484        9.6111701113       29.7534567158
  H         5.4137533165        8.6559296685       28.7288677247
  C         5.2180572229        8.0505061182       30.5734632437
  H        -6.2805172320        8.4195341894       25.8363788409
  H        -6.9785791779        8.9869461717       27.3133392081
  C        -7.5130484281       10.1230903538       25.3715713763
  C        -2.3520156885       16.0808081465       35.2895464087
  S         4.9753011593       10.0145005921       11.3590171111
  C         4.3828150733        7.0391620046       11.2597992033
  H         5.1969699807        8.4487144773       31.5619376479
  H         4.3112202431        7.6924503649       30.3199049182
  C         6.3048276919        6.9867974150       30.4923671375
  H        -7.1769260722       10.1615123967       24.4007635614
  H        -7.5590259749       11.1710048191       25.6353408766
  C        -8.9334410039        9.4432132885       25.2691934425
  H        -2.0429689105       17.1000939134       35.4263963173
  C        -2.9301434028       15.6615714556       36.4551402502
  H         5.2058548081        7.3995156218       10.6783807564
  H         4.6329900129        5.9881767974       11.4347308094
  C         3.2106473619        7.0816525208       10.3255718972
  H         7.2339314685        7.3717240276       30.0782857490
  H         5.8923205373        6.3136390367       29.7794199609
  C         6.4743913809        6.3170746835       31.8635779206
  H        -9.2577460589        9.3907119825       24.2723226578
  H        -8.7309950281        8.4719169308       25.5291533261
  C        -9.9967429756        9.9636201127       26.2836180339
  S        -3.5452212639       14.0930625353       36.8041188055
  C        -3.0291877165       16.6857538664       37.5878653443
  H         2.9661875635        8.0993321773       10.1191728060
  H         3.3949378779        6.5715590133        9.4073615855
  H         2.3301775290        6.6908569299       10.7915396891
  H         7.3856185194        5.7751186898       32.0402635479
  H         5.6687024591        5.5656754387       31.9542775745
  H         6.3048949950        7.0279559704       32.7640539435
  H       -10.5445217840       10.7710887382       25.8915008727
  H        -9.5274563182       10.1958612455       27.2361363150
  H       -10.7433210926        9.1472744286       26.4297322613
  C        -4.0362421471       14.7365562848       38.3698643463
  N        -3.8059714393       16.0479745233       38.5454282080
  O        -2.8234105553       17.8873046317       37.5299293855
  S        -4.9443087956       13.8532497795       39.5711554130
  C        -4.0231808454       16.7535600728       39.7906080885
  H        -4.1526134012       17.8272019928       39.6734912676
  H        -4.9114716566       16.4981832995       40.2778158466
  C        -2.8537243433       16.5949768226       40.7075357581
  H        -2.8710458721       17.2731064101       41.5455836465
  H        -2.7547991939       15.6240881616       41.1393270133
  H        -1.9204480289       16.8440156365       40.2313675786
  H         6.8003972297       10.9986804430        3.1797993442
  C         7.5816750178       10.2657468364        3.3485850132
  H         6.9914918817        9.3714114547        3.3645500391
  C         8.3025791510       10.4995193641        4.6842973686
  C         8.5834436933       10.1621848294        2.2026228169
  C         7.3769222856       10.7280947863        5.8322568594
  H         8.9958153479        9.6884320351        4.9371618330
  H         8.8448812734       11.4245913377        4.5345657100
  H         9.3605676864        9.3822473841        2.4633420232
  H         9.0329863497       11.0852435802        1.9287438260
  H         8.1065880129        9.6961783292        1.3154349029
  C         7.2654586012        9.4157426667        6.5612886100
  H         7.7985843124       11.4725362803        6.5217300102
  H         6.3954787617       11.0955767880        5.4673159489
  C         6.3747277815        9.4499668074        7.8187108800
  H         8.1069067028        9.0937175311        7.0208395227
  H         6.9150240421        8.6242858445        5.8748131032
  C         5.0444889363       10.2358849711        7.7631145949
  H         6.9433888474       10.0531752175        8.5482515722
  H         6.2352147168        8.4991938311        8.2879684449
  C         3.9291585038        9.6335277910        6.8648901830
  H         4.7181152773       10.3344154523        8.8449307871
  H         5.1210724451       11.2492098286        7.3919875888
  C         2.7489239564       10.6583004774        6.6343647150
  H         3.5427096567        8.8318632639        7.3894778494
  H         4.3546313712        9.2363360008        5.9437428772
  C         3.1520036700       12.0812308107        5.9862705464
  C         2.2775967568       11.3402658163        7.8875151280
  C         1.7320764665        9.9579369225        5.6993632248
  C         2.7725333407       13.1654318406        6.7673913514
  C         3.6543475336       12.4987848854        4.6764880707
  C         2.2374164458       12.7012414066        7.9540621820
  C         1.9848290176       10.7470634825        9.0963096794
  H         2.3351311607        9.5563259080        4.9641958591
  H         1.3616501759        9.1941172614        6.3729669347
  C         0.6473652650       10.8184314977        5.0810682366
  S         3.0975129821       14.6456038819        6.0375295031
  C         3.8065461169       13.8859151303        4.6140045541
  H         3.7548581211       11.7478355352        3.9391646045
  C         1.8176511303       13.3201992316        9.0924603879
  H         2.0623223926        9.7105844939        9.1745158020
  C         1.5213335451       11.3582443047       10.2117562123
  H         0.9468189389       11.5364085350        4.3404667839
  H         0.2250524667       11.4329252776        5.8770991255
  C        -0.4574914479       10.0358408572        4.3844070705
  C         4.1952995168       14.5817161065        3.3514611485
  C         1.4782313124       12.7289380149       10.2677054682
  H         1.7625282859       14.4489124523        9.1498070091
  C         1.1236834926       10.9410857198       11.5061856425
  H        -1.2709128863       10.7155369996        4.2385316292
  H        -0.7795985933        9.2372321635        4.9827579250
  C        -0.0566545984        9.6755077968        2.9897920152
  C         4.2634106305       15.9688826304        3.1532663220
  C         4.5543272454       13.7714987500        2.1636995303
  C         1.0669995114       13.4471106862       11.5510444613
  C         0.8534637575       12.0826284298       12.2794155383
  S         1.0479458573        9.4017811558       12.3255134182
  H         0.4859305165        8.7671506492        3.0816697021
  H         0.7693922414       10.2626723753        2.5551908446
  C        -1.1531953111        9.7430387355        1.8649847186
  N         3.9361266258       16.8906077642        4.1496901893
  C         4.6499454924       16.5710535963        1.9256157763
  C         5.0720123788       14.3970938559        1.0014281803
  H         4.4483369605       12.7357225781        2.2013424190
  C        -0.2829500024       14.2436578795       11.3504125536
  C         2.2749701730       14.3105222719       12.1066359748
  C         0.4633131405       11.6401493032       13.5837907045
  C         0.5361920979       10.2738716327       13.7208712370
  H        -2.0743790059        9.4831939167        2.2363484147
  H        -1.1809183013       10.6978260603        1.3737743786
  C        -0.8172981733        8.7117661140        0.7330148741
  S         4.0561305445       18.3617931632        3.4614061715
  N         4.5063491279       17.9470234880        1.9401901400
  C         4.9881463155       15.8578820780        0.7716936131
  H         5.3790460008       13.7287861704        0.2506873859
  H        -0.1671887100       14.8581359290       10.4190114663
  H        -0.5074665833       14.9183150526       12.1761978763
  C        -1.4664026047       13.3045388488       11.0864885764
  H         3.0809807972       14.2811434664       11.3610983290
  H         1.9765139924       15.3548448964       12.2129755594
  C         2.7829953481       13.9699831041       13.5108755532
  H         0.3601222066       12.4474066539       14.3145552533
  C         0.2738804350        9.5342179655       15.0262482294
  H        -1.6417257767        8.0932999959        0.3261954775
  H        -0.1143654749        7.9969343407        1.1336028781
  C        -0.3025568103        9.5123982704       -0.5576104094
  C         5.3344960475       16.5447914105       -0.4518502244
  H        -1.2587234599       12.5692655801       10.3356585326
  H        -1.7810471196       12.7341365104       11.9705972756
  C        -2.6528046917       14.1240089467       10.8269492087
  H         2.7556168629       12.8914900029       13.7488707778
  H         2.0081894557       14.5458790146       14.0574219521
  C         4.1038851164       14.5682132968       13.8121735658
  C         0.2612029326        8.1211470740       15.2236005358
  C         0.2304904282       10.3361588933       16.2958358044
  H         0.4410872260       10.2794989533       -0.4496838559
  H         0.2161447357        8.8846096858       -1.3277422553
  C        -1.4728316415       10.0992307560       -1.3483345384
  H         5.3196076343       17.6252435856       -0.3562070558
  C         5.6945746305       16.0725806012       -1.6941102098
  H        -2.3212440243       15.0200189315       10.2342190245
  H        -3.0983062876       14.4210100646       11.7553556770
  C        -3.5259598085       13.2724784238        9.9352758817
  H         4.1874759751       15.6188165312       13.4581106862
  H         4.2448560794       14.6640366651       14.9346346272
  C         5.2773574094       13.6824840254       13.3819775764
  N         0.3495549566        7.2452159348       14.2356338117
  C         0.0083931752        7.4817666997       16.4405704667
  C        -0.0298966793        9.7277153541       17.5080708515
  H         0.3234643185       11.3934337043       16.1571013496
  H        -2.0761777570       10.7080749627       -0.6627166318
  H        -2.1496350666        9.3479798830       -1.6984174006
  H        -1.2861374062       10.5994641116       -2.2623531732
  S         6.0209766299       14.3971244067       -2.2044607826
  C         5.7895219993       17.0290413685       -2.7874029670
  H        -3.0964859361       13.1988905530        8.9408425300
  H        -3.4753539653       12.2604124106       10.2952346077
  C        -5.0115913294       13.7354792780       10.0965336854
  H         5.1038715754       13.0873260846       12.4974522009
  H         5.4575627977       12.9206237512       14.0990597902
  C         6.6366845037       14.3785906584       13.2457064879
  S         0.1954219667        5.7390443410       14.8014926584
  N        -0.1147212835        6.0923156504       16.3700798166
  C        -0.2586800396        8.2319860435       17.5957004296
  H        -0.3149368817       10.3598232926       18.3328664056
  C         6.2123374088       15.0966781990       -3.8018935967
  N         6.1654032841       16.4512138493       -3.8730917014
  O         5.7092992121       18.2354057039       -2.5892591924
  H        -5.3838342771       13.7849451707       11.1197256199
  H        -5.2383962551       14.6736882290        9.6391555874
  C        -5.9044268819       12.8123052306        9.2917887474
  H         7.4365071069       13.6627191324       12.9241212893
  H         6.5746989011       15.1918153804       12.5352021329
  C         7.0257212859       15.0239412420       14.5744782823
  C        -0.6512011561        7.5852803440       18.8437072355
  S         6.8811393618       14.1682818943       -5.1372605329
  C         6.2093840817       17.2048883284       -5.0999349151
  H        -5.3512184636       12.6009410526        8.4106122704
  H        -5.8975760350       11.9526541395        9.8835628223
  C        -7.2003693257       13.4487610174        8.9874351336
  H         7.1249005991       14.2995409400       15.3146102524
  H         6.3290665145       15.8146132748       14.8630650964
  C         8.3870534609       15.6678927043       14.4590281096
  H        -0.5053255602        6.5530667075       18.8312582531
  C        -1.1074266918        8.1011499593       20.0155885592
  H         6.8422129454       16.7037412718       -5.8030678923
  H         6.6679417783       18.2064155783       -4.9446695288
  C         4.8424350457       17.3172249076       -5.7452286828
  H        -7.6239422449       12.8476488486        8.2306942144
  H        -7.0768536330       14.3476458979        8.3571489686
  C        -8.0458880435       13.7020700975       10.2277100884
  H         8.8316731125       15.9406766150       15.5167440283
  H         9.0965594503       14.9303833863       14.0709564040
  C         8.4067819666       16.9678785646       13.5648899622
  S        -1.6276516221        9.6291125019       20.3372824869
  C        -1.2570622890        7.0874281040       21.0794926450
  H         4.4936398241       16.2518651128       -6.0876318075
  H         4.7520451455       17.9514663652       -6.5827259779
  H         4.0489290962       17.5950321822       -5.0183422222
  H        -9.0966103774       14.0034629326       10.0139566755
  H        -7.9803326800       12.8084273450       10.8548831410
  H        -7.5361902920       14.5141422952       10.7963923396
  H         8.3675685243       17.8569712426       14.1945022957
  H         9.3776470068       17.0872163366       13.1070879711
  H         7.6485096721       17.0934048433       12.8099861014
  C        -2.0622130190        9.0381763689       21.9355544443
  N        -1.8870774943        7.6968162050       22.0948038275
  O        -0.9281702136        5.9276865971       20.9625454659
  S        -2.9216172573        9.9485180576       23.2435754079
  C        -2.0848872781        6.9936657707       23.3688032101
  H        -2.2632654347        5.9276691596       23.2456392585
  H        -3.0559453809        7.2869693217       23.7178567125
  C        -1.0229975143        7.1409481398       24.4117593380
  H        -1.2235912578        6.3904095315       25.1428566904
  H        -1.0557104987        8.1496067551       24.9248352173
  H        -0.0000825787        6.9150902138       24.1137050685
