352
i =
  H        -3.0126915843       15.6407036843       15.8429206930
  C        -3.0065246103       14.6149761674       16.2541656912
  H        -3.9545401878       14.1804760600       16.6933688762
  C        -1.8646049799       14.4561286489       17.2209563664
  C        -2.8181243736       13.8032011879       14.9517212285
  C        -2.4317735569       13.9982424883       18.5700487646
  H        -1.2602592394       13.6565618298       16.7415768129
  H        -1.2995711556       15.3244844775       17.2247088183
  H        -3.7040121499       13.7326266592       14.2649924677
  H        -2.0352130053       14.1803700138       14.3432748718
  H        -2.6098993942       12.7631825223       15.2852334685
  C        -1.4592581263       13.8965895820       19.6831615212
  H        -2.8830988684       13.0100705939       18.5638612274
  H        -3.2269262638       14.5470471983       18.8675763610
  C        -2.1361988109       13.8138401928       21.0173287887
  H        -0.7242331955       13.0754882125       19.4538953164
  H        -0.8974502396       14.8125845804       19.6806340448
  C        -1.2337852894       13.0454941529       21.9973046456
  H        -3.1131301508       13.3901680733       21.0260708924
  H        -2.1918178365       14.8795904163       21.3620485469
  C        -0.1082839707       13.8921462639       22.6145804206
  H        -1.9011010268       12.9053264989       22.8476425714
  H        -0.7662012440       12.1129076554       21.6451051109
  C         1.0472922942       13.1662079482       23.3877838412
  H         0.3700609606       14.4683975084       21.8714156004
  H        -0.5056830496       14.6701017987       23.2793510354
  C         1.4291145070       11.8420948760       22.7762176457
  C         0.6598262726       12.5239824129       24.6348454161
  C         2.3899067432       13.9672696409       23.4458920667
  C         1.2242874591       10.7982036061       23.5822783271
  C         2.0131073002       11.4043547184       21.5326260736
  C         0.7702986433       11.2019779208       24.8641319365
  C         0.1171135614       13.2162772243       25.7350816410
  H         2.7071114808       14.1098318351       22.4142822872
  H         2.1458806709       14.9579478954       23.9406107869
  C         3.6093874656       13.1866093168       24.0959478511
  S         1.4484220102        9.2040066437       22.7978397884
  C         1.9988063207       10.0350833951       21.3296680402
  H         2.3658487954       12.2234158624       20.9015272754
  C         0.3781456461       10.5437302863       26.0066865632
  H         0.0406463716       14.2908545619       25.7876614349
  C        -0.2917829075       12.5985879368       26.8615414181
  H         3.7303541934       12.0869406371       23.9123122145
  H         3.2030320551       13.3171685025       25.0727317530
  C         4.9665225299       13.9116026651       23.9822371859
  C         2.3923189554        9.3267216339       20.1009908312
  C        -0.2273088800       11.2598134204       27.0317558737
  H         0.4256759422        9.5283575024       26.1324989645
  C        -0.7121813366       13.0829162906       28.0908630334
  H         5.7188154420       13.4216835755       24.5524283363
  H         4.8142928879       14.9514280553       24.4468608086
  C         5.4708081640       14.0488073978       22.5565285485
  C         2.2430880130        7.8998504541       19.8667507597
  C         2.9660373643       10.0854158601       19.0389945169
  C        -0.6595614345       10.5795753702       28.3233706252
  C        -0.9301315936       11.9675604146       28.9294317630
  S        -0.8945136892       14.5700335997       28.9021077934
  H         6.4283771210       14.4439405732       22.5440524672
  H         4.6994063806       14.7152471943       22.0912263441
  C         5.5382253235       12.7856498588       21.7925445354
  N         1.8109316478        6.9684088458       20.8243494933
  C         2.4291118408        7.3726663427       18.5891290948
  C         3.3134999377        9.4903390893       17.8389154413
  H         3.0048644875       11.1578763637       19.1172753510
  C         0.4860751458        9.7630248958       29.0598745076
  C        -1.8688808567        9.6988761394       28.0348446887
  C        -1.2088383233       12.3484712405       30.3002849130
  C        -1.2423905686       13.7105805686       30.3556011701
  H         6.4127953726       12.3218025530       22.2007188295
  H         4.8088554463       11.9939633461       22.0533076133
  C         5.8273862871       13.1855353440       20.3132953142
  S         1.7505516800        5.5375791397       20.0563750554
  N         2.0740837397        6.0401611187       18.4957282792
  C         2.9135725424        8.0824244627       17.5418218183
  H         3.7716765087       10.0105613787       17.0127426384
  H         0.8033938941        9.0537352275       28.2987747682
  H         0.0772179964        9.1302545210       29.8657025061
  C         1.6547304336       10.5074406349       29.6261214248
  H        -1.5343069210        8.8676463065       27.3968487937
  H        -2.1418901859        9.2525683958       28.9851169463
  C        -3.0866824253       10.4092864994       27.5431035562
  H        -1.1755111885       11.5634156199       31.1048318625
  C        -1.5212576670       14.5141237358       31.6122041887
  H         5.5601846851       14.1381560548       20.2473910424
  H         5.1472512079       12.6692912271       19.6605941964
  C         7.3318003702       13.0212661855       19.8806905733
  C         3.1887121957        7.4420895062       16.3246322602
  H         2.0136296328       11.3626836188       29.0139255917
  H         1.4514851178       10.9014342580       30.6233077618
  C         2.8910741959        9.5632437984       29.7565083464
  H        -2.6770358414       11.0269130788       26.6691813881
  H        -3.4280829366       11.0894103048       28.3050941930
  C        -4.2801835574        9.6532630706       27.2897748205
  C        -1.6890722278       15.9508809135       31.7207236066
  C        -1.8995185565       13.8322581685       32.8724262268
  H         7.9616319257       13.6231386461       20.4659009479
  H         7.6844473812       12.0055446013       19.8529740829
  C         7.5430614365       13.2822478111       18.4250084847
  H         3.1259021184        6.2726106497       16.3294916572
  C         3.5749675344        7.9990942069       15.1083654813
  H         3.3313040226        9.4739680170       28.7096818137
  H         2.6122867956        8.5479680741       30.0073386679
  C         3.9122293898       10.0723438383       30.8321748289
  H        -4.0296203380        8.8294816220       26.6440522844
  H        -4.6059946942        9.1981892040       28.1707632350
  C        -5.3750712532       10.5350474319       26.7467734710
  N        -1.4812738994       16.9276226104       30.7252528335
  C        -2.0065166661       16.5263604229       32.9419038426
  C        -2.2466531014       14.4109608013       34.0551386304
  H        -1.7903560916       12.7912602488       32.7717604859
  H         6.5905420419       12.9164038710       17.8205265285
  H         7.6908982536       14.4230889565       18.3262791818
  H         8.4534220090       12.7889690766       18.0472140315
  S         3.8652242190        9.6233414700       14.6088114712
  C         3.7899845008        7.0167977016       14.0284088370
  H         3.7276764221       11.0918141004       31.1806487190
  H         3.7239586435        9.3611168588       31.6315425000
  C         5.3534769422        9.7338854400       30.4236720229
  H        -4.8911164209       11.1853072745       25.9947737126
  H        -5.7918097682       11.2467500916       27.4462537591
  C        -6.3629613148        9.7308868619       25.9513524264
  S        -1.3827807578       18.3904041697       31.4177420457
  N        -1.9209594461       17.9473157156       32.8920700931
  C        -2.1819518444       15.9165951295       34.1950296323
  H        -2.5986513457       13.8728708860       34.8019721039
  C         4.3186780005        8.9682239630       12.9713939177
  N         4.1534744343        7.6676734408       12.8924145703
  O         3.6299237090        5.8606794374       14.1567880828
  H         5.9250689183       10.5145672439       30.9579054978
  H         5.6963576733       10.0909868841       29.3988348429
  C         5.7017622349        8.2869635919       30.7100521034
  H        -5.7237682051        9.1021811412       25.2664996370
  H        -6.9975320806        9.1018128098       26.6229893537
  C        -7.3754601643       10.6234649759       25.1157702568
  C        -2.5635983952       16.7137369643       35.3151766658
  S         4.6833385200        9.8531271714       11.5494978632
  C         4.1113174356        6.8775258917       11.5831801874
  H         6.0493834982        8.2249769959       31.7553386277
  H         4.7221082881        7.7613613047       30.7114548797
  C         6.6277507426        7.6015335513       29.6921544954
  H        -6.7470433057       10.8131756976       24.2198504239
  H        -7.4222112926       11.6339970179       25.5143315446
  C        -8.6524615372       10.0548642035       24.7242397599
  H        -2.4238392155       17.7579220265       35.2536362896
  C        -2.9613086526       16.3421838096       36.5232983173
  H         5.0607797651        7.1202605266       11.0199244163
  H         4.0198696697        5.8372148955       11.8404396093
  C         2.8527802541        7.2164709144       10.6792651691
  H         7.5259138539        8.1969757488       29.5856578498
  H         6.0630760399        7.5543049811       28.7415690112
  C         6.9403120024        6.1533163836       29.8839512758
  H        -9.1171965911       10.6774913667       23.9872869537
  H        -8.6279669882        9.0005904750       24.2503720773
  C        -9.6377923861       10.0727225933       25.8486658112
  S        -3.4637310459       14.7521372573       37.0436885477
  C        -3.2682567881       17.4097028041       37.6171619525
  H         1.9994373073        6.5701126302       10.7869812772
  H         2.4469811886        8.2375660280       10.8797889739
  H         3.0160363474        7.3525423330        9.5923313111
  H         7.6938703608        5.9342675015       29.1374351494
  H         6.1264139789        5.5096705503       29.7817116863
  H         7.3846654194        5.9887880552       30.8709681674
  H       -10.0258462444        8.9840266056       26.0134757005
  H       -10.4850185563       10.6327352229       25.5401598046
  H        -9.3123983760       10.7176435155       26.6977462205
  C        -4.1189298874       15.4895207098       38.5202239804
  N        -3.8821705295       16.8160229003       38.6854567414
  O        -2.8503689977       18.5686991600       37.5626391808
  S        -4.9545144080       14.6189999262       39.8077332882
  C        -3.9130360799       17.5852879649       39.9418484648
  H        -4.4625924448       18.5425617299       39.8831074854
  H        -4.4778635766       17.0108364315       40.6615100021
  C        -2.5468624106       17.6409484081       40.5436801443
  H        -2.7293862515       17.7856231333       41.6139430931
  H        -2.0378351696       16.7393397796       40.4131283683
  H        -2.0547355506       18.5253565093       40.3008379097
  H        10.1128080001       10.0788004430        4.5932491334
  C         9.3139221736       10.6605986288        4.1425004107
  H         9.2893099236       11.6558629445        4.5813846964
  C         8.0372107880       10.0344130821        4.6648280171
  C         9.1595675639       10.6827098048        2.5087705537
  C         7.9375152299       10.3066256476        6.1338164729
  H         7.2040887581       10.3067315724        4.0730101367
  H         8.1314875422        8.9140841882        4.4002679738
  H         9.7317609015        9.8751133022        2.2026647931
  H         9.6768700709       11.4742625665        2.1464713813
  H         8.2192105677       10.7818042456        2.0013789057
  C         6.9771728814        9.2506962532        6.6835736101
  H         8.9003890853       10.1428393392        6.6466092325
  H         7.6869255621       11.3542349196        6.4261436152
  C         6.2116787905        9.7078344149        7.9159619919
  H         7.4449522722        8.3997763916        6.7920369575
  H         6.2929393054        9.0063834151        5.9615461790
  C         5.1102128805       10.6932345087        7.8833865180
  H         6.7982260817       10.0462423068        8.7218797246
  H         5.8530090370        8.8438730563        8.4381787338
  C         3.8218741048       10.1270844557        7.2379916163
  H         4.8638935777       10.9231394154        8.8973467968
  H         5.4549883006       11.6444455606        7.3393413744
  C         2.6757220032       11.1503555473        7.1013802851
  H         3.4065129986        9.3730755569        7.7021209263
  H         3.9300443364        9.9623406460        6.1766627674
  C         3.0269713241       12.4787121079        6.4995620502
  C         2.1749555805       11.8776883776        8.3688127831
  C         1.4160718514       10.5509865555        6.2890261964
  C         2.7647794889       13.5704373622        7.3001866006
  C         3.4178775923       12.7480238261        5.2497302041
  C         2.2463186773       13.2254524836        8.4877804042
  C         1.7305465981       11.2056319319        9.5447173742
  H         1.8296978627       10.0012038954        5.4015036218
  H         0.9611963603        9.7638149585        6.7944759245
  C         0.2536846733       11.3706732444        5.7281472306
  S         3.0948529580       15.0546912356        6.4905570501
  C         3.6928019709       14.0990731035        5.1350713257
  H         3.7320201931       11.8895320297        4.5841379595
  C         1.8498487306       13.8813305216        9.6586966421
  H         1.8179022914       10.0971082571        9.4740023791
  C         1.5004640138       11.8437831939       10.7136453348
  H         0.5374554905       12.3616325956        5.3610916521
  H        -0.4658360882       11.6147424619        6.5516552254
  C        -0.5176792371       10.6626688004        4.6544652870
  C         4.3484415899       14.8165314450        3.9721980573
  C         1.4700761812       13.2055565768       10.8015763003
  H         1.8884831892       14.9199817980        9.6507890620
  C         1.1646953326       11.4114778756       12.0384453311
  H        -1.5133679235       11.1278090719        4.6171095270
  H        -0.6612489927        9.6691844616        4.9541148839
  C         0.1135017750       10.6093268117        3.2349072714
  C         4.3891465605       16.1722707340        3.6628016940
  C         4.5036096500       14.0505522276        2.7160951215
  C         1.0225254929       13.8153407337       12.1129001449
  C         0.8610613794       12.4787307442       12.8608433981
  S         0.8732007103        9.8532044870       12.7027975357
  H         0.9779810161       10.0296181859        3.1848871375
  H         0.4627099257       11.6056932469        2.9630829463
  C        -0.9068730789       10.2178582443        2.1375503067
  N         4.0373663446       17.2141479911        4.5678546425
  C         4.6154957401       16.6725227934        2.3577640331
  C         4.8843862797       14.5205926841        1.4420947547
  H         4.2970946471       12.9848707739        2.6408257192
  C        -0.2557668751       14.6564746658       11.9225103912
  C         2.1877398215       14.7548890936       12.7248274605
  C         0.5268678923       11.9982778916       14.1547448142
  C         0.5678223334       10.6085736240       14.1414605559
  H        -1.0605415190        9.1694753529        2.1725425051
  H        -1.8389052986       10.6733457880        2.3765365530
  C        -0.1924706401       10.5903067230        0.8066781417
  S         3.9075143121       18.5668341905        3.7294098920
  N         4.4619261449       18.0210692968        2.2507412189
  C         5.0710965317       15.9583265408        1.1910503366
  H         5.1377837329       13.8112726823        0.6846946308
  H        -0.1160508602       15.4507853763       11.1872538771
  H        -0.6283294945       15.1728754236       12.8265501941
  C        -1.3023065285       13.7904228321       11.3296742921
  H         2.5227365340       15.6611891767       12.2150793078
  H         1.6879210321       15.1418785415       13.6094114665
  C         3.4644489010       13.9111322755       13.0947634028
  H         0.0970543397       12.7249669740       14.8335862144
  C         0.1533221326        9.7907430988       15.3623643321
  H         0.8948887062       10.2121099401        0.7966375223
  H        -0.1839498289       11.6665175431        0.6252327032
  C        -0.9142623762        9.9473322051       -0.3570673672
  C         5.1615787829       16.5091221109       -0.1199031707
  H        -0.8866809635       13.1961415202       10.5523942100
  H        -1.6517630946       13.1039611242       12.0587183216
  C        -2.5509373354       14.5597791799       10.9271353066
  H         3.9341263131       13.4250603495       12.2561303474
  H         3.1490806839       13.0721517135       13.7818330325
  C         4.5803980830       14.6971169280       13.7040526425
  C        -0.0612123439        8.3846831598       15.5546626119
  C        -0.0754318084       10.5480346604       16.6539279106
  H        -0.2609738676        9.1750070129       -0.8153089712
  H        -1.8563372961        9.4977636564       -0.0089722400
  C        -1.1883960308       10.9285201696       -1.4821636219
  H         4.9068242704       17.5911808131       -0.0325030595
  C         5.4140136704       15.9664296454       -1.3452250873
  H        -2.2664923124       15.2212405505       10.1000276015
  H        -2.8518626406       15.2663304252       11.6620952256
  C        -3.7125429516       13.7556843670       10.5427723308
  H         5.1309313138       15.3187903632       12.9562432098
  H         3.9175106605       15.3353899953       14.3599079896
  C         5.6001965107       13.8092687563       14.4464916992
  N         0.2099800631        7.4361161649       14.5780128894
  C        -0.3699678233        7.7888940878       16.7942464488
  C        -0.5012627656        9.9291462885       17.8571230654
  H         0.0687153425       11.6321269144       16.7962197126
  H        -0.2267955412       11.0879429481       -1.8988105064
  H        -1.6323046406       11.8105656568       -1.2585539837
  H        -1.7414577796       10.4563291367       -2.1924488753
  S         5.6959019685       14.2714680501       -1.6504272114
  C         5.3661700951       16.9494404257       -2.4462683432
  H        -3.6164734870       12.8978643088        9.8578950048
  H        -3.9442176314       13.3036733005       11.5111585036
  C        -4.8948977297       14.5525413986        9.9865357912
  H         5.5030733412       12.7031467050       14.2775863901
  H         5.2872181305       13.8587606224       15.5069093938
  C         7.1037884856       14.2411374243       14.4455289582
  S         0.0958401891        5.9588945290       15.1878829941
  N        -0.3483539212        6.4371107352       16.6642247949
  C        -0.7234251087        8.4782592449       17.9451287379
  H        -0.8228797990       10.5357752156       18.7114106427
  C         5.8300645408       14.9177422279       -3.3309963718
  N         5.6314621913       16.2050095133       -3.5561449396
  O         5.2401711908       18.1650794227       -2.4337716795
  H        -5.2598427935       15.3048726785       10.6523061246
  H        -4.5426120140       15.2736994453        9.1943491436
  C        -5.9256466141       13.5995230460        9.3677370641
  H         7.6631529855       13.5645246209       15.0596669638
  H         7.4909198478       14.1360389980       13.4950847151
  C         7.2772340912       15.6593566460       14.9325254407
  C        -1.0265496721        7.6903269557       19.0676254930
  S         6.1680982482       13.8808550265       -4.7393332847
  C         5.6042498826       16.8824765229       -4.8996178430
  H        -5.6886171043       13.6098173386        8.2515261581
  H        -5.7739940820       12.5927190712        9.7461525040
  C        -7.2973509894       14.1815818514        9.3765603743
  H         7.9006667594       15.5782068097       15.7552082922
  H         6.4025689080       16.1107095159       15.3279629924
  C         7.9751627246       16.4721586694       13.9344605555
  H        -0.6975155942        6.6811220241       19.0956312827
  C        -1.6679642789        7.9914830172       20.2413511965
  H         6.0802479865       16.5147256542       -5.7247080789
  H         6.1938661078       17.8416727517       -4.7654088702
  C         4.1348968734       17.1261666017       -5.2563706694
  H        -7.8264977293       13.8880533658        8.4539115649
  H        -7.1386402199       15.2941597467        9.6203548563
  C        -8.1662155129       13.6236046973       10.4514441669
  H         8.8907740016       15.9854813381       13.5005788069
  H         7.1563239347       16.6782503275       13.1813939341
  C         8.3980600029       17.8375468068       14.5342043360
  S        -2.3392117882        9.5441124370       20.6161660186
  C        -1.7113845915        7.1090307572       21.4294642586
  H         4.2202830950       17.8780771102       -6.0398058513
  H         3.5543779119       17.6660828118       -4.5346626871
  H         3.5209559141       16.3448643771       -5.7424224838
  H        -7.9969701870       12.5631765383       10.4061452072
  H        -7.8272742015       14.1680870986       11.3761901541
  H        -9.1524747446       13.8314326829       10.1708824808
  H         8.4811865473       18.5577281389       13.6992897269
  H         7.7430031188       18.1152672822       15.2824142788
  H         9.3780543623       17.8021782123       14.9684163809
  C        -2.5148829974        9.0573035728       22.3014691457
  N        -2.2375022890        7.7218285325       22.4894190041
  O        -1.4931162009        5.8904893970       21.4021039082
  S        -3.4966017548        9.9593265472       23.4034316867
  C        -2.5204169177        6.9494438487       23.7073358559
  H        -3.2318429003        6.1574436114       23.4948407957
  H        -3.0313450205        7.6464516805       24.3982851081
  C        -1.2686579520        6.4015805006       24.3485966211
  H        -0.3672811336        6.9315320492       24.0411940873
  H        -1.0956785833        5.4284734167       24.1106781547
  H        -1.4102499498        6.3687174412       25.4778283811
