352
i =
  H        -3.1662144601       14.7286513471       16.4583621758
  C        -2.8775013362       13.6637867211       16.4456943483
  H        -3.7214281869       13.1349479850       16.7463121019
  C        -1.7643183884       13.4668516600       17.4855062708
  C        -2.5356377804       13.0348499625       15.1323023478
  C        -2.1655111033       13.8848586515       18.8897380512
  H        -1.5123591820       12.4089853206       17.5281234254
  H        -0.9164099640       14.0000326235       17.1138515699
  H        -2.1355813255       12.0496856555       15.3514999749
  H        -3.5455646106       12.9260994809       14.6178045740
  H        -1.9041460716       13.5868526815       14.4556676529
  C        -2.2692720282       12.7027898773       19.8705830879
  H        -3.1080340984       14.3399779844       18.8463575661
  H        -1.4471142233       14.6888173158       19.1669218159
  C        -2.6012122644       13.1734384052       21.2486820897
  H        -3.0254760314       12.0291415186       19.4672971874
  H        -1.3379301762       12.1263759771       19.9146880372
  C        -1.5867370118       12.6898389785       22.3027777215
  H        -3.5571798639       12.6679833757       21.4890028358
  H        -2.5463997725       14.2627794094       21.2910763210
  C        -0.4038069372       13.6749717160       22.4865607337
  H        -2.0086533511       12.5834272257       23.2923697923
  H        -1.3152472848       11.6664387470       21.9769870178
  C         0.7855293592       12.9777056298       23.1071037655
  H        -0.1395668078       13.8560767591       21.4590859259
  H        -0.6811955563       14.5437153468       23.1392625279
  C         1.1573370539       11.6412738228       22.4087808926
  C         0.3846189807       12.3033155436       24.3840879663
  C         1.9573572637       13.8997087836       23.1709976133
  C         0.9037654508       10.5334318711       23.2521138262
  C         1.6668968719       11.2323394945       21.2102495874
  C         0.4176549750       10.9501059546       24.4923931076
  C        -0.0261480457       12.9502298366       25.5610348805
  H         2.2403119247       14.1670453391       22.1893383045
  H         1.6911048846       14.8191002360       23.7622989606
  C         3.1913825912       13.2732492110       23.8730890071
  S         1.2482411491        9.0186968122       22.5604189255
  C         1.7869331853        9.8896097931       21.1715236497
  H         2.1090577180       12.0174437629       20.6196713984
  C         0.1376660089       10.3246328574       25.6081636930
  H        -0.0416334385       14.0189821588       25.4882152857
  C        -0.3975221630       12.3370442240       26.7137642439
  H         3.4927415679       12.4053001740       23.3325154854
  H         2.9452392504       13.0196163846       24.9078649389
  C         4.4396101881       14.1831446447       23.9580871667
  C         2.2820378764        9.0705402763       19.9311021613
  C        -0.3204657057       10.9775819828       26.8247401330
  H         0.2334665231        9.2172122548       25.6503013538
  C        -0.8317703295       12.6884302508       27.9244030982
  H         5.1282387170       13.8211871915       24.7549442984
  H         4.1857154370       15.1957975909       24.1716140195
  C         5.1829256702       14.3991271166       22.6649354305
  C         2.2153183685        7.7279233899       19.6870676460
  C         2.7872469406        9.8733659750       18.8458505826
  C        -0.7677864335       10.2848294019       28.0781381655
  C        -0.9966337394       11.6011410492       28.7553071425
  S        -1.1228608567       14.2095134030       28.6500251577
  H         5.7969967682       15.2851579472       22.7888230371
  H         4.4724818380       14.5191427276       21.8440781054
  C         6.0789145106       13.1631199599       22.3790508972
  N         1.6763780374        6.8658123865       20.5853200723
  C         2.4494995076        7.1211813556       18.4755817272
  C         3.1054089975        9.3062661983       17.6043418159
  H         2.7174445971       10.9642734792       18.7634666854
  C         0.3922751748        9.4232687123       28.7673361826
  C        -2.1574402199        9.5294466551       27.8565300249
  C        -1.3326158645       12.0332712767       30.0572074103
  C        -1.4254252848       13.3919667335       30.1397049136
  H         6.9598720553       13.4407579212       22.8550229599
  H         5.7142807731       12.2972123550       22.9713356390
  C         6.2759456308       12.8566632068       20.8822079315
  S         1.7415106493        5.3716202454       19.9318029809
  N         2.2406460825        5.7251105059       18.4724104961
  C         2.8963890852        7.8570942669       17.3865246427
  H         3.5447990030        9.9266951570       16.8904291780
  H         0.7638573500        8.7792835233       28.0219373192
  H        -0.1851824448        8.8831920953       29.4775068171
  C         1.5272662038       10.2132835770       29.4767139035
  H        -1.8512996723        8.6816653133       27.3079748605
  H        -2.5871984920        9.2414287155       28.7789573421
  C        -3.3165763442       10.3101449750       27.2170588737
  H        -1.3076601258       11.3548104487       30.9111587136
  C        -1.7380719582       14.1843857327       31.3625499063
  H         5.3953746707       12.8318789264       20.2764093529
  H         6.7734672485       11.8908335375       20.7214942052
  C         7.2133738623       13.8654744890       20.1835668325
  C         3.1406063633        7.1369966710       16.1617078173
  H         1.9703215576       10.9951399702       28.8259481986
  H         1.1911149699       10.6514705377       30.4149594677
  C         2.5720700339        9.2587100543       29.9124314027
  H        -3.1329998661       10.2805792611       26.1427667883
  H        -3.4220448008       11.3537023942       27.5651299420
  C        -4.6500568208        9.6823796374       27.4578390798
  C        -1.7304594964       15.5932047628       31.5517778059
  C        -2.0492235560       13.3844656814       32.5940309110
  H         6.7539629395       14.8862634323       20.0306605259
  H         8.0862549414       13.9899011369       20.7538776635
  C         7.3909988672       13.3731133271       18.7037537294
  H         2.9455945069        6.0729150842       16.1981454960
  C         3.5544137360        7.5819695258       14.9242078441
  H         3.0159314387        8.6342332153       29.1262751471
  H         2.0858016920        8.5990165426       30.6849233086
  C         3.7018839361        9.9198285333       30.6357006106
  H        -4.6340122518        8.6059756483       27.1902908864
  H        -4.9561835313        9.6387160160       28.5437390864
  C        -5.8214715707       10.4714186653       26.8593514808
  N        -1.5094197022       16.5535442081       30.5318312868
  C        -2.0301411430       16.2045661441       32.7314651564
  C        -2.2637774547       13.9995234375       33.8384848046
  H        -2.1684031028       12.3247899733       32.6048590113
  H         8.0203525924       13.9602303631       18.0645211044
  H         7.7456760297       12.3281590102       18.6780053688
  H         6.4815596092       13.3260551161       18.1719008992
  S         3.9559524374        9.1518159772       14.5963994392
  C         3.7564821606        6.6471750588       13.8226071461
  H         3.8413009139       10.9304781783       30.2728165942
  H         3.3809650266        9.9861810851       31.6519794213
  C         5.0583285924        9.1102270739       30.7049825896
  H        -5.3170320326       11.1852665002       26.2289839709
  H        -6.2538358962       11.1406081369       27.6104489138
  C        -6.7700969500        9.6846257086       25.9997246996
  S        -1.3854269217       17.9692529191       31.2645205098
  N        -2.0169696879       17.6043983612       32.6542123235
  C        -2.4216301543       15.4731048003       33.9288981843
  H        -2.3567793556       13.3866052536       34.7123710651
  C         4.1375261085        8.6841813090       12.9660579093
  N         4.1285625448        7.3632716073       12.7870533752
  O         3.5469172050        5.4728075218       13.9448098400
  H         5.8779522221        9.6535472757       31.1836781339
  H         5.3553105596        8.8504414169       29.6201740510
  C         4.8416118875        7.7198736985       31.3842637022
  H        -6.3352776029        9.0952346950       25.1795606942
  H        -7.0622348562        8.9456095002       26.6786926727
  C        -7.8832722834       10.5728302273       25.3881080988
  C        -2.7754556572       16.2187499393       35.0943127733
  S         4.6416765691        9.7312568999       11.6152754403
  C         4.2308607221        6.8247223650       11.4192760081
  H         5.4389361621        7.6351072685       32.3184188072
  H         3.7475869407        7.6012081696       31.6973943098
  C         5.2070605345        6.4689896802       30.5799785620
  H        -7.5618939073       10.8780571114       24.4014736508
  H        -7.9213531808       11.4329236347       26.0320428204
  C        -9.2253402481        9.9796619102       25.3308337134
  H        -2.5687963788       17.2826036853       34.9432075656
  C        -3.2471867912       15.8075026616       36.3334376259
  H         4.6056258880        7.4429237460       10.6225282651
  H         4.8944318780        5.9587253241       11.3974061245
  C         2.8741686809        6.2918053982       10.9580258647
  H         4.7168803159        6.4144725557       29.6434731177
  H         4.8944507832        5.5629855520       31.1128303350
  C         6.6890616020        6.5061063647       30.2977403859
  H        -9.7901487535       10.6797272442       24.7477266236
  H        -9.0420656343        9.0173909065       24.8190220429
  C        -9.8175261193        9.6122080966       26.6733819562
  S        -3.7786360618       14.2423713506       36.7149588127
  C        -3.2956453786       16.7822092597       37.4039336557
  H         2.4596729913        6.9486822702       10.2414812619
  H         2.8875138993        5.2939497991       10.4617275292
  H         2.1059645129        6.2235117725       11.7179845643
  H         7.1384859185        6.0715284619       31.2263139760
  H         6.9934059429        7.5085470580       30.0187758817
  H         6.7126828242        5.7560921148       29.4294213119
  H        -9.8033020525       10.4352392930       27.3857454410
  H        -9.4034475439        8.7015190607       26.9979691090
  H       -10.9119032341        9.2516772150       26.5324611348
  C        -4.0986580339       14.9237457416       38.3523592415
  N        -3.8230908911       16.2122098707       38.4752074015
  O        -2.8904356825       17.9551316950       37.2649432991
  S        -4.7217692183       13.8918059013       39.5841154092
  C        -3.8847751036       16.8544349143       39.8025465321
  H        -4.1940441454       17.8972500407       39.6081418124
  H        -4.5418949176       16.3481377457       40.5736298599
  C        -2.5725100280       16.9380969344       40.4807431843
  H        -1.7826915930       16.9186513430       39.7603409688
  H        -2.4404471726       17.6621107096       41.2644499211
  H        -2.4554811985       15.9082212045       40.9533029428
  H         7.7698587931       11.1412518414        3.7596876437
  C         8.5181589449       10.3294028166        3.8850784775
  H         7.8520169046        9.5204737731        3.9446021436
  C         9.1727577585       10.5287696712        5.2890852673
  C         9.5432526975       10.2758911345        2.6854356881
  C         8.2412011193       10.7396367204        6.5173614872
  H         9.9837617552        9.7577498698        5.4750615415
  H         9.7671432951       11.4520079579        5.1693640838
  H        10.0331859534       11.2222174702        2.3838807838
  H         8.9974557575       10.0503026177        1.7976697649
  H        10.3408868079        9.5937477136        2.7266691399
  C         7.4324361644        9.5059964069        6.7772480006
  H         8.8943399708       10.9430373554        7.3498707962
  H         7.5480530856       11.6254376020        6.3951727634
  C         6.7060346757        9.5245712007        8.1170716721
  H         7.9928050528        8.6036113425        6.8057494708
  H         6.6187304499        9.4413445847        6.0064385242
  C         5.4279134649       10.4112263708        8.0324064845
  H         7.3876097015        9.9633069558        8.8531551938
  H         6.4359563048        8.4962539444        8.3469735648
  C         4.1920655359        9.7129978310        7.4105221559
  H         5.1652131301       10.6790985469        9.0569516007
  H         5.5514646954       11.3930884754        7.6506992625
  C         2.9205026871       10.5280628733        7.1725680578
  H         3.8532305368        8.8836631055        8.0831249154
  H         4.5602515183        9.1821351376        6.5334923705
  C         3.2622555616       11.8826169828        6.5121785122
  C         2.3571022158       11.2355841283        8.3848871496
  C         1.8288779652        9.7477221337        6.3242720158
  C         2.8490256865       13.0103910477        7.2669666691
  C         3.8597465313       12.3379267610        5.2875076662
  C         2.3026425064       12.6154345742        8.4625656979
  C         1.9251674002       10.6802887095        9.5480357131
  H         2.2763402999        9.4230321006        5.3510131454
  H         1.5194400554        8.9091807367        6.9662184390
  C         0.6114588219       10.5667903604        5.9744254584
  S         3.2275686726       14.4793901066        6.5712664010
  C         3.8922146433       13.7076059357        5.2450593161
  H         4.0040147644       11.5463255817        4.4575699930
  C         1.8674532636       13.2267683806        9.5493808046
  H         1.9514292538        9.6217007059        9.6188534965
  C         1.4877660985       11.3028125173       10.6389167203
  H         0.8907553959       11.5211242247        5.6014438806
  H         0.1510288751       10.7827907987        6.9541311173
  C        -0.3678553406       10.1326974369        4.8108085014
  C         4.2699205352       14.4635833397        3.9750106771
  C         1.4091194373       12.6592858793       10.7085384396
  H         1.9412441816       14.3003519623        9.6913330109
  C         1.0959679511       10.8985255749       11.8955821285
  H        -1.2909362502       10.5794223296        5.0685007650
  H        -0.6303009191        9.0339989796        4.8708759569
  C         0.0462901556       10.5374171194        3.4367470556
  C         4.3339958403       15.8011728155        3.6652623798
  C         4.8228677309       13.5976665784        2.8381105339
  C         0.9588268588       13.3444377479       11.9495402265
  C         0.7076705589       11.9554718737       12.6732202032
  S         0.9912328915        9.3746103493       12.6644248874
  H         1.1144758424       10.2452784357        3.2754089600
  H         0.1084320432       11.6281955874        3.3763750055
  C        -0.8673317754        9.9655785350        2.4310755307
  N         3.9277810308       16.7222931442        4.5613133562
  C         4.7177209107       16.3303594907        2.4111281502
  C         5.0119287549       14.1430267370        1.5975553006
  H         4.9859910076       12.5609181469        2.9065363532
  C        -0.4073521003       14.1101278744       11.6953603472
  C         2.0941464310       14.1245226684       12.7257166507
  C         0.4262902020       11.5213701203       14.0230946983
  C         0.5582916536       10.1734136699       14.1463858557
  H        -1.1543847460        8.9229543316        2.8338106078
  H        -1.8488088544       10.4943457961        2.3073922823
  C        -0.1209655732        9.6342320095        1.1099574921
  S         4.1261822784       18.1758733738        3.8151611208
  N         4.5230957491       17.6814708850        2.3970189818
  C         4.9888561790       15.5825909479        1.3017299314
  H         5.2529749641       13.4319238924        0.7883847682
  H        -0.1611106896       14.8439678960       10.9105438442
  H        -0.6527775672       14.7422689638       12.5878598846
  C        -1.5879955031       13.2094014409       11.2724381159
  H         2.3725936224       15.0272680432       12.1332644090
  H         1.6370441704       14.5273058453       13.6373451603
  C         3.2752310219       13.3188806937       13.0138095611
  H         0.1085180674       12.2252693153       14.8473935679
  C         0.2460157499        9.3738804227       15.4251767163
  H         0.5895715777        8.8742710522        1.3333205138
  H         0.4426269869       10.5583474240        0.7179431669
  C        -1.0372326897        9.1917755145        0.0109139061
  C         5.0696405637       16.1876676725        0.0494443263
  H        -1.3378418132       12.8337486193       10.3177004624
  H        -1.6891800637       12.4429873652       11.9914133387
  C        -2.8589515550       14.0471211021       10.9622683555
  H         3.6634434641       12.6844393358       12.2119259903
  H         2.9704985481       12.6283786260       13.7999872469
  C         4.3773829733       14.1798843860       13.6119259506
  C         0.0975814205        8.0040087425       15.5103483058
  C        -0.0012766467       10.0998752779       16.6490035350
  H        -0.4844943079        8.5640052250       -0.7263004765
  H        -1.9156798614        8.6239154726        0.4076504283
  C        -1.7026844876       10.3473332043       -0.7313839156
  H         4.9291411125       17.2724742896        0.0225415605
  C         5.2695987785       15.6308701109       -1.1606271355
  H        -2.9952286354       14.1993325674        9.8954839063
  H        -2.9770055977       15.0250411065       11.4316531893
  C        -4.0431521156       13.1363115819       11.3264006844
  H         4.3781645033       15.0050574759       12.9038764320
  H         4.2247230615       14.5028411093       14.6296940332
  C         5.6049656451       13.2595021521       13.6937080045
  N         0.3586162041        7.1243614096       14.4598870392
  C        -0.3740956477        7.3754230543       16.6553499144
  C        -0.3086674730        9.5011553103       17.8458028317
  H         0.0775326687       11.1950789404       16.6010862825
  H        -1.9402816452       11.1726052195       -0.0744670696
  H        -2.5265600000        9.9896794881       -1.2884505535
  H        -0.9891130243       10.7748726264       -1.4308202062
  S         5.5000964182       13.9685691511       -1.5681297891
  C         5.3782771932       16.5487286418       -2.3065375524
  H        -3.7811428902       12.1492034176       10.8622411864
  H        -4.1220224240       12.9839244053       12.4168952340
  C        -5.3544151752       13.6300041099       10.7221995043
  H         6.1613384623       13.2487671914       12.7624870026
  H         5.3105195420       12.1999924679       13.9074820071
  C         6.5930179384       13.7687141711       14.6727305375
  S         0.0781949239        5.5972556684       14.9310730342
  N        -0.4464153604        5.9452270003       16.4168735067
  C        -0.6446230661        8.0473632064       17.8635591065
  H        -0.3619437970       10.1462238561       18.7567951437
  C         5.7012369826       14.5370033926       -3.2268588545
  N         5.6912684489       15.8772216685       -3.4094293729
  O         5.3833332842       17.7434861826       -2.2460734576
  H        -6.2044213259       13.3796598126       11.3914919042
  H        -5.3342755917       14.6849710711       10.5771156757
  C        -5.6116828354       12.9878825867        9.3521221541
  H         6.0910864935       14.0083795264       15.6310223884
  H         7.3577620414       12.9501326439       14.8087261133
  C         7.4947837200       14.9456130515       14.2704400499
  C        -1.0870999660        7.1773672092       18.9792069986
  S         6.2191812271       13.6816139839       -4.6313384052
  C         5.8730982548       16.6902051534       -4.6662500848
  H        -4.7554818766       13.0733780625        8.6583880620
  H        -5.9719029687       11.9115145824        9.5481901835
  C        -6.6934305795       13.7039655254        8.5735389744
  H         7.2397627101       15.5025201991       13.3425527807
  H         8.5413785248       14.5269049735       13.9683425491
  C         7.5503231080       15.9339534225       15.4382732507
  H        -0.9742841445        6.0751374852       18.8653369855
  C        -1.6687582367        7.6004877319       20.1595523158
  H         6.3473798168       16.2150325775       -5.5823724371
  H         6.5224272098       17.5119708759       -4.5273974216
  C         4.4596809268       17.1611146547       -5.1000660717
  H        -6.7461198376       13.1976961427        7.5687828159
  H        -6.3161221500       14.6758940825        8.3203830780
  C        -7.9955904246       13.8763298790        9.3213738303
  H         6.5346070566       16.1003522575       15.8251494127
  H         8.0216642478       15.5193159321       16.3140938420
  C         8.2826179325       17.2589095463       15.1389686884
  S        -2.1842599949        9.1720543270       20.5588484133
  C        -1.7028772293        6.6398723557       21.2880852658
  H         3.7186814185       16.4183512229       -5.3194774413
  H         4.4617021771       17.8554904892       -5.9251646770
  H         4.1016385422       17.9111409369       -4.3492498207
  H        -8.7536130295       14.3159753610        8.6217591463
  H        -8.4484314048       12.9949884058        9.7581706423
  H        -7.8625811873       14.6212775748       10.0736176211
  H         8.4527000871       17.3948576773       14.0399072772
  H         7.8188245805       18.1327751474       15.5534907871
  H         9.3019470719       17.1636382207       15.5478439987
  C        -2.4300407914        8.5713990536       22.2494924774
  N        -2.3063864585        7.2288053674       22.3526353118
  O        -1.2911688609        5.5022502403       21.2702487011
  S        -3.1148332768        9.4695187047       23.5907140010
  C        -2.4598774323        6.5376581621       23.6458115118
  H        -2.7314772365        5.5616378661       23.4027983932
  H        -3.2520644337        7.0050730027       24.2466584155
  C        -1.1897153081        6.5640298671       24.3789506598
  H        -0.8210028163        5.6199011910       24.8356999237
  H        -1.3156034114        7.4078114712       25.0872408731
  H        -0.3726676198        6.7813886516       23.7228267194
