352
 i =    74300, time =    74300.000, E =        24.9310200415
  H        11.3589096839        7.4927060649       32.0318606840
  C        11.1681523225        6.4603050301       32.2388144789
  H        12.1528548482        5.9799941548       32.2658064743
  C        10.4304245870        5.9106796773       31.0709889110
  C        10.4330715293        6.3286328830       33.6543805951
  C        11.0991834225        6.2729177773       29.7566026062
  H        10.3615592062        4.7935333932       31.1614391242
  H         9.3809768287        6.1684659237       31.1265895658
  H        10.5152856594        5.3557384512       34.1333370306
  H        10.8934030528        7.0470125973       34.3531704061
  H         9.4000374025        6.6576792890       33.5318613071
  C        10.5775077272        5.4196490342       28.5382228848
  H        12.1264194369        6.0470601827       29.8635190144
  H        10.8667194180        7.3353326449       29.5304384176
  C         9.6245559737        6.2347867509       27.5922673329
  H        11.3597439815        4.9596549028       27.8987086765
  H         9.9775422305        4.6542092983       28.9622905850
  C         8.8643941093        5.4015160350       26.6143554935
  H        10.2798461022        6.9471908138       27.0222671821
  H         8.9045756545        6.7062014678       28.3004554328
  C         7.6764098253        6.0398954914       26.0649587585
  H         9.5189569634        4.8099285953       25.9265621979
  H         8.4929386214        4.6403282252       27.2410092693
  C         6.9086486094        5.0402404616       25.1320822720
  H         6.9124173754        6.2585204808       26.8741269662
  H         7.8584902475        7.0428503290       25.6149587639
  C         6.6493645153        3.7113579607       25.8718831879
  C         7.5647078666        4.3994614267       23.9995720091
  C         5.6057502622        5.7535895730       24.5690419090
  C         7.0198246912        2.6185367271       25.1095665952
  C         6.0590006830        3.3451380120       27.1306249267
  C         7.5473082319        3.0260680995       23.8575548372
  C         8.1154885836        5.0582253297       22.8804751921
  H         5.1682290564        5.2893299872       23.7440886957
  H         5.8276855865        6.7174343896       24.3202990205
  C         4.4528780683        5.8601510048       25.5357648104
  S         6.6750052487        1.1408244596       25.9494269293
  C         6.0790701177        2.0196819096       27.3258874680
  H         5.5816825584        4.0696211053       27.7729289019
  C         7.9926730432        2.4168011704       22.6976016171
  H         8.2143321166        6.2029465189       22.8107763778
  C         8.5502951830        4.4337971910       21.6925394512
  H         4.1441059882        4.9699819439       26.0289917914
  H         4.8162139894        6.5772983574       26.2874496548
  C         3.1710785130        6.5567054709       24.9773465722
  C         5.7081206772        1.3798071118       28.6187121014
  C         8.4659109322        3.0952476491       21.5740730660
  H         8.0546577200        1.3290753447       22.8434667244
  C         8.9418581081        4.8288410706       20.4320654152
  H         2.6612296068        5.8462924845       24.2821248839
  H         3.4392156143        7.4991460103       24.4836843455
  C         2.1013521772        6.7633515965       26.0792125252
  C         5.8352675206        0.0467009039       28.9349457437
  C         5.1995228144        2.2824922746       29.7528976248
  C         8.8313588651        2.3543497775       20.3032720866
  C         9.1717234969        3.7116556335       19.6117197282
  S         9.2652537017        6.3005943897       19.5450868051
  H         1.1714290897        6.9990439543       25.6866230606
  H         2.4618632676        7.7360700412       26.5254661917
  C         1.8577965806        5.6503846602       27.0894149065
  N         6.0055094223       -0.9656258414       28.0147460376
  C         5.6924030846       -0.4962799060       30.1860909101
  C         5.0137637332        1.7720020390       31.0085053840
  H         4.9192294319        3.3465304335       29.6004909824
  C         7.5382046040        1.5760497667       19.8702910641
  C        10.1229113435        1.5019447457       20.6038340905
  C         9.3345790072        4.0829398272       18.2406239429
  C         9.4246537201        5.4990440820       18.0692059523
  H         2.1651187880        4.6285471601       26.8190244771
  H         2.4837094819        5.8373061531       27.9347488617
  C         0.4548941854        5.4913510068       27.5294497927
  S         6.2684584620       -2.3473363993       28.7554814561
  N         5.8978070852       -1.9067673991       30.2470950210
  C         5.3582039476        0.3172781807       31.2617493367
  H         4.7433153254        2.4278442490       31.8332406681
  H         7.3830071957        0.8971769022       20.6326286248
  H         7.7623463461        0.9909377718       18.9638032404
  C         6.3356477267        2.3942546629       19.5273139991
  H        10.4390738855        1.0264299254       19.6758853745
  H         9.8198456120        0.7146709264       21.3278183167
  C        11.3256855965        2.3665634738       21.0120321076
  H         9.2887677256        3.3522695687       17.4270276718
  C         9.8729884387        6.2202916733       16.8422506085
  H        -0.0286203006        4.7022426437       26.9751527025
  H        -0.1120357700        6.4177158178       27.6020054692
  C         0.6052672560        4.8844214453       28.9208688391
  C         5.2034324987       -0.3153943164       32.5809908051
  H         6.7209450750        3.0058147470       18.7162448206
  H         5.9639086768        2.9570768812       20.3514343160
  C         5.1730632888        1.5829825553       19.0876201302
  H        11.0485109862        2.8856593830       21.9377665888
  H        11.6025631258        3.1216805511       20.2550898718
  C        12.5871890881        1.5461589697       21.3756093659
  C        10.0852875017        7.5978738795       16.6570878538
  C        10.0336535098        5.4341598217       15.5830789295
  H        -0.3019939575        4.4499060293       29.2596749800
  H         1.3268094199        4.0852592222       28.7706973463
  C         0.9813778459        5.8802745510       30.0298199247
  H         5.6139574879       -1.2933938932       32.5348396894
  C         4.8683684233        0.0671197853       33.8856655833
  H         4.2498306997        2.1420628983       19.1324461273
  H         5.0957176047        0.7364601634       19.7602435025
  C         5.3317254311        0.9375651506       17.6646413206
  H        12.3221110694        0.8608227646       22.2017724730
  H        12.8789938467        0.9047965575       20.5228861695
  C        13.7531045548        2.3832227710       21.8247816870
  N        10.0531961044        8.4954910674       17.7113841783
  C        10.4435317269        8.2511886749       15.4082429140
  C        10.4317602578        5.9976188740       14.4172950049
  H         9.7791996187        4.3639649678       15.6323009119
  H         0.3725660093        6.7856359710       29.9675049249
  H         0.7447986187        5.5699696696       31.0692239780
  H         1.9596741727        6.1875590693       30.1889718583
  S         4.5490153720        1.6909360045       34.4171006727
  C         4.8987087463       -0.9299029247       34.9461744363
  H         5.6346712056        1.6239242720       16.8663875242
  H         6.0451354162        0.1091480040       17.6952008037
  C         3.9396593173        0.4194596886       17.2785596039
  H        13.5533314853        3.1171684366       22.6306138300
  H        14.0417045769        2.9836257582       21.0120599495
  C        14.9009615228        1.5344384859       22.4749803449
  S        10.1003847749       10.0439405707       17.1008783441
  N        10.5983732102        9.6313345779       15.5408693557
  C        10.6417113177        7.4843574656       14.2281751960
  H        10.5208145470        5.4322109221       13.4518455871
  C         4.5233077400        1.0591813370       36.0675177333
  N         4.5926922053       -0.2669390453       36.1227612426
  O         4.8749182143       -2.1276698261       34.7369162362
  H         3.9982314721        0.1608319222       16.2282307645
  H         3.1561341617        1.1249627665       17.3031655207
  C         3.4331760606       -0.7749687750       18.1048542172
  H        14.6144328180        0.7904676418       23.2140275654
  H        15.4971949121        1.0301158451       21.6714642017
  C        15.8801162164        2.5120129834       23.1955615408
  C        10.8813911125        8.1559758502       12.9706452297
  S         4.0118715286        1.9162789379       37.4533400280
  C         4.6140768749       -1.0294620002       37.3728863477
  H         4.0901025650       -1.6760889201       17.9501553867
  H         3.5813115000       -0.5093218956       19.1637598781
  C         1.9503427656       -1.1807687468       17.8299917121
  H        15.3309049334        3.0390588955       24.0218546461
  H        16.1645079661        3.3514895617       22.6510886279
  C        17.1190801920        1.8035108872       23.5972945032
  H        10.5172602098        9.1649055293       13.0071215099
  C        11.3331928193        7.8602536501       11.6931973080
  H         3.9293932657       -0.6138546424       38.0651958376
  H         4.0860170203       -1.9305278368       37.1410143477
  C         6.0214869508       -1.0840565801       37.9757269508
  H         1.4145858808       -0.2772088667       17.6320700754
  H         1.5475837104       -1.7789892240       18.6391282812
  C         1.8068279873       -2.1552373993       16.6799370726
  H        17.4623291991        2.2161268631       24.5479601097
  H        16.8676771189        0.7406413341       23.8025034966
  C        18.1524260684        1.7623089774       22.4987748341
  S        11.9540273891        6.3331280177       11.1359670212
  C        11.3872760689        8.8995976663       10.7319675015
  H         5.9629625982       -0.4430322747       38.8515367461
  H         6.3300800598       -2.0959628095       38.3278153731
  H         6.7996395744       -0.6947800444       37.2672832902
  H         2.7367519224       -2.2631579906       16.0168789072
  H         0.8143899284       -2.0007296029       16.1893748642
  H         1.8733971356       -3.1218766906       17.1994284477
  H        19.1628877463        1.4633044348       22.7733857669
  H        18.2424204579        2.7373354822       22.0021938309
  H        17.9547933978        1.1241327968       21.7475899488
  C        12.4510092707        7.1112514433        9.6680689418
  N        12.0216873931        8.4198592011        9.6125808221
  O        10.8086997747        9.9378847997       10.8097741652
  S        13.1409125680        6.3937919802        8.1650790678
  C        11.9832364814        9.2697480388        8.4369451835
  H        12.1671118239       10.3325724143        8.6892218118
  H        12.6257891465        9.0792953934        7.6829260528
  C        10.6408273788        9.1696474201        7.8684577119
  H        10.2039362888        8.1694497392        7.9777013363
  H         9.9612205508        9.9466999259        8.1272887176
  H        10.7001479571        9.3808149371        6.7837518993
  H        -3.7330794081       14.8433578565       15.9657515498
  C        -3.5345211450       13.7985834027       16.0880579372
  H        -4.4587025600       13.3129073141       16.3864698074
  C        -2.3823333288       13.6217526619       17.0500627071
  C        -3.0362954946       13.3454032145       14.6792627645
  C        -2.7474668907       13.5356567175       18.5002264668
  H        -1.7864544480       12.7387556774       16.7945333381
  H        -1.6640723762       14.3886527685       16.8603746255
  H        -3.9943829969       13.3579049934       14.0739161419
  H        -2.3002445613       14.0422206302       14.3177961158
  H        -2.5810785185       12.2874448467       14.6212344219
  C        -1.5607154369       13.5748398974       19.4211763533
  H        -3.3767847124       12.6917462918       18.7417636756
  H        -3.3214268663       14.4286509658       18.8170770444
  C        -2.0350374333       13.7111964349       20.9003490341
  H        -1.0797329753       12.6243203103       19.3808332144
  H        -0.8245778355       14.2467818970       19.0207300541
  C        -1.1219711700       12.9819301048       21.9445117260
  H        -3.0306651964       13.2581156761       20.9696171573
  H        -2.1349357138       14.7869646461       21.3114660426
  C         0.0789169757       13.7472250349       22.3027394014
  H        -1.6831649845       12.8831155913       22.8887193068
  H        -0.7762648717       12.0161058268       21.5668275353
  C         1.1403000919       12.9137075727       23.1433454452
  H         0.5570409379       14.1061582648       21.3464723180
  H        -0.3432236477       14.5777812461       22.7914456915
  C         1.5289612725       11.6053277802       22.4211178656
  C         0.6845069162       12.1763427943       24.3687428275
  C         2.2807197014       13.8102269192       23.4123052575
  C         1.3137434110       10.5159411213       23.2334308352
  C         2.1082313949       11.2997589704       21.1940866974
  C         0.7832906823       10.8398467450       24.5012354972
  C         0.2177131757       12.8094910296       25.4936005239
  H         2.5022420993       14.2052856463       22.4435504075
  H         1.9783176434       14.6794746866       24.0547917355
  C         3.5036472673       13.1082690833       24.0498358023
  S         1.6761059113        9.0101945933       22.4207424634
  C         2.1592205704        9.9431756426       21.0528247332
  H         2.4764484127       12.0661536295       20.4883571060
  C         0.4594890092       10.1624339807       25.6614548422
  H         0.0371423178       13.8847659479       25.6308970638
  C        -0.0584391597       12.1588771498       26.6284770653
  H         3.7920454391       12.3268740993       23.3769204806
  H         3.2423806195       12.7345070444       25.0427276654
  C         4.7501483968       14.0333737971       24.2861365296
  C         2.5124890633        9.2558274940       19.7646638967
  C        -0.0278403955       10.8259023133       26.8063295656
  H         0.5874890662        9.0807079922       25.7083617039
  C        -0.4738130465       12.5455000916       27.8973711302
  H         5.3933203914       13.7899644795       25.0925588880
  H         4.4291450990       15.0930750916       24.4105386785
  C         5.7486574111       14.3006801774       23.1129717398
  C         2.5536282941        7.8582449930       19.5621712118
  C         2.8957950049       10.1569309609       18.5907687563
  C        -0.4868394354       10.1817990936       28.0525734630
  C        -0.6895297781       11.4747172276       28.7467169368
  S        -0.7318500512       14.1121415624       28.6344223152
  H         6.4978899672       14.9887767758       23.3645210139
  H         5.0924707701       14.8372177763       22.3843207617
  C         6.3734214798       13.0624622686       22.5831346571
  N         2.3712187950        6.9020402775       20.5668198466
  C         2.7089977105        7.3162655394       18.3156528427
  C         3.1338355180        9.6356434700       17.3808920498
  H         2.8394010092       11.2245657015       18.6536885228
  C         0.5106230762        9.2809048640       28.7584004295
  C        -1.8423959198        9.4586468704       27.7728329199
  C        -1.0368528027       11.9282664213       29.9998660128
  C        -1.0584734616       13.3378208507       30.1535758129
  H         7.0717370826       12.6441352240       23.3403693103
  H         5.6114900222       12.2895981058       22.3338637338
  C         7.4026749033       13.2531696884       21.5110961975
  S         2.4871525382        5.4187094678       19.8715805106
  N         2.7270894994        5.9341005609       18.3588258051
  C         2.9497905208        8.0981924235       17.1291471962
  H         3.3236794328       10.2805230918       16.5316795250
  H         0.6920534980        8.3527641072       28.2200120293
  H         0.0568280267        8.9967101459       29.6915557539
  C         1.8316775096        9.9833667068       29.2539915230
  H        -1.6192302416        8.5292254016       27.1124625224
  H        -2.1725493172        9.0326830497       28.7299810385
  C        -2.9743073243       10.3051162125       27.1784493486
  H        -1.2528268296       11.2469313829       30.7841980014
  C        -1.5548226854       14.1512050095       31.3931979818
  H         8.1724628062       12.4307794959       21.6054313521
  H         7.9476486119       14.1473564109       21.7054262688
  C         6.8323079682       13.1984335322       20.0933850925
  C         3.0797829581        7.4692078644       15.8746929407
  H         2.3462214538       10.5119347921       28.4381829482
  H         1.5451144261       10.8225729833       29.9252595314
  C         2.7743044856        9.1676591616       30.0112078063
  H        -2.6361916802       10.7569511390       26.2823139030
  H        -3.1551104513       11.0851326087       27.9174998118
  C        -4.3204360231        9.6118521872       26.9007094832
  C        -1.5138691605       15.5343108027       31.5275187312
  C        -1.9618206085       13.3978014834       32.6033298808
  H         6.5366317808       12.1715244994       19.8184897327
  H         5.9695822982       13.8455179483       19.9945975559
  C         7.8396396111       13.6287664454       19.0223536281
  H         2.6790106161        6.3873955637       15.9142454196
  C         3.4663294965        7.8948421771       14.6139595698
  H         3.2750075685        8.4738516938       29.3461220012
  H         2.2393788217        8.4990079429       30.8067594974
  C         3.8216355551       10.0449904553       30.7214544901
  H        -4.0119052579        8.8427238637       26.1164429418
  H        -4.6198425338        9.2746972668       27.8523544393
  C        -5.3553504147       10.6228422540       26.2720149947
  N        -1.2433478038       16.4486073951       30.5066375932
  C        -1.7450208882       16.1471143155       32.7139318860
  C        -2.0217418872       13.9885172245       33.8263100130
  H        -2.0269028255       12.3527063113       32.5453556552
  H         7.5233012479       13.2114816969       18.0785983522
  H         7.9887728866       14.6694823190       18.9348734505
  H         8.8137183037       13.2003537544       19.2560197903
  S         4.0266436462        9.4906333127       14.1005991131
  C         3.3727619647        6.8779951797       13.5146888633
  H         4.5188777093       10.6629554393       30.1493022877
  H         3.3654568416       10.8433825026       31.2812597787
  C         4.6707730542        9.2141260735       31.6830674819
  H        -5.0474307770       11.1592190825       25.4048046491
  H        -5.7015582542       11.3565127475       27.0355692081
  C        -6.6681004528        9.9228039557       25.7965245221
  S        -1.3504632113       17.9492670033       31.1088943311
  N        -1.7058171338       17.5521460550       32.6896154701
  C        -2.0025699143       15.4606703303       33.9560395258
  H        -2.0223702639       13.3944940982       34.7207956208
  C         4.0806551831        8.7811081552       12.4784541364
  N         3.7859253582        7.4803859491       12.3709582981
  O         3.0204820339        5.7160978523       13.6947364190
  H         4.0092047532        8.6854027044       32.4544953975
  H         5.2656649020        9.9075887785       32.2354970802
  C         5.5465139781        8.2478917903       30.9697064157
  H        -6.3948011798        9.4179223724       24.8748729990
  H        -7.1049821720        9.2060787822       26.4701337732
  C        -7.8787482689       10.7595700901       25.4081247623
  C        -2.2256298762       16.2443664718       35.1215740463
  S         4.4714675096        9.6316429734       11.0642551671
  C         3.8617981375        6.7267285657       11.1034474202
  H         5.2857477602        7.9922032539       29.9309064631
  H         6.5107752188        8.7843147681       30.8403334523
  C         5.7972347600        6.8562242260       31.6748257312
  H        -7.6747199094       11.2674869021       24.4736199764
  H        -8.0897163413       11.5195621581       26.1138353466
  C        -9.1411668884       10.0157387987       25.0098912060
  H        -2.2891444943       17.3527534773       35.0438158529
  C        -2.7196756219       15.8882334395       36.3453624776
  H         4.7006731400        7.1646206682       10.5438202841
  H         4.0000151798        5.6800251789       11.3957492374
  C         2.5334467627        6.9318376502       10.3010402138
  H         5.5354838114        6.9504938925       32.7131762827
  H         6.8610090651        6.6151453985       31.6833651380
  C         4.9457104592        5.7573439583       31.1218773385
  H        -9.8598756265       10.6548960191       24.6259655647
  H        -8.9416926973        9.2904321874       24.2272477542
  C        -9.7842106544        9.4385097153       26.2350752678
  S        -3.1617923119       14.3186991010       36.8138217528
  C        -2.8513368487       16.9372521259       37.3773306005
  H         2.3429894702        6.0378021395        9.6190217225
  H         1.6397116340        7.2547626224       10.8370798167
  H         2.7008932332        7.7623513275        9.6783005635
  H         4.9206663572        5.7329310672       29.9930494659
  H         3.9278677467        5.9513718685       31.4869351101
  H         5.2752573366        4.8628288862       31.5457273417
  H       -10.7095401262        9.0834986004       25.8407050164
  H        -9.9925738387       10.1992327419       26.9674655176
  H        -9.2985698381        8.5729961991       26.7008180344
  C        -3.7033904708       15.0252864820       38.3496518737
  N        -3.4628066642       16.3579306610       38.4461905313
  O        -2.5585042611       18.1448959157       37.1969663284
  S        -4.3289537635       14.2590169656       39.8253480993
  C        -3.6298912145       17.0860997068       39.7016212169
  H        -3.8366512872       18.1507161127       39.5422643371
  H        -4.5874963952       16.7691935881       40.1842873778
  C        -2.3308222468       17.0271202816       40.5162083453
  H        -2.1788926993       16.0635824476       41.0469645554
  H        -1.4536488804       17.1833683340       39.8486115590
  H        -2.2575423960       17.7984863715       41.3253883718
