352
 i =    56500, time =    56500.000, E =        25.2476570752
  H        11.8433684606        4.5345679636       32.3259545655
  C        11.1243218829        5.2882715152       31.8952866862
  H        10.3446166699        4.6955851910       31.4795631846
  C        11.8003893324        6.2356245954       30.9414999788
  C        10.5191107213        6.0776440906       33.1068939205
  C        12.1217282736        5.5337944225       29.5957849739
  H        11.1730732242        7.0908257172       30.8440994953
  H        12.6511545007        6.6321304955       31.3187417901
  H         9.5223122898        6.4173331363       32.7393639935
  H        10.4542400696        5.2816967624       33.8759768087
  H        11.1024459481        6.8494479361       33.5144598074
  C        10.7327574036        5.5339249987       28.8033317622
  H        12.3829876734        4.5141674195       29.6303135536
  H        12.8516012737        6.0030671593       28.9830359022
  C        11.0730956511        5.5835633396       27.2944086214
  H        10.1318941186        4.6580832224       28.9208941848
  H        10.0758774565        6.3210596854       29.0893856554
  C         9.8956417906        4.8716310712       26.4837344691
  H        12.0479785181        5.0607884140       27.2753752340
  H        11.3353039682        6.6279916030       27.0254033077
  C         8.6601534984        5.6993169475       26.0672986140
  H        10.3012331638        4.4605888771       25.5551754201
  H         9.5493745048        4.0076938546       26.9856344905
  C         7.4658686559        4.9392306570       25.5270791193
  H         8.4242042408        6.3084945019       26.9379247887
  H         8.8518667782        6.3162545320       25.2731518061
  C         7.1412554509        3.6233164935       26.2538115813
  C         7.7934965191        4.1821574565       24.3581637138
  C         6.2686269784        5.9074394604       25.3838173380
  C         7.2459793079        2.4953085140       25.4289361658
  C         6.6310466799        3.2396747418       27.4875009598
  C         7.8466395031        2.8392048408       24.2139345111
  C         8.1403498668        4.8824088047       23.2464297010
  H         6.4771912792        6.6281380429       24.6136498404
  H         6.1673667850        6.3977628058       26.3512894910
  C         4.9354834487        5.2095757342       24.9759926666
  S         6.7220068576        0.9951105509       26.1125741429
  C         6.3692237768        1.9169228292       27.6020559548
  H         6.5205259961        4.0152232231       28.2137513755
  C         8.1000930336        2.3158882579       23.0412436673
  H         8.1424886407        5.9396448469       23.4087489238
  C         8.5223782207        4.3850804801       22.0463235227
  H         5.0260402425        4.7141024429       23.9947084642
  H         4.7663889120        4.3815086458       25.5716620732
  C         3.6883691840        6.0662823918       24.8590761161
  C         6.0284968367        1.2726381338       28.9000075137
  C         8.4784584750        3.0251341864       21.9016774033
  H         8.0983777999        1.2868917873       22.9822422253
  C         8.9442511501        4.7941632592       20.8001348442
  H         2.9574260501        5.4754777693       24.2882425804
  H         3.8411343088        6.9417623863       24.2919959246
  C         3.1467254289        6.2571728894       26.1830929963
  C         6.0568753681       -0.1156584172       29.1811236923
  C         5.6672906321        2.1177518418       30.1172076230
  C         8.8193424721        2.3165232950       20.6508541037
  C         9.0681314029        3.6892992692       19.9642948984
  S         9.1819870511        6.3138001617       19.9745815290
  H         2.3813967736        7.0556931249       26.1737947897
  H         3.9246165684        6.4875692749       26.8571067956
  C         2.3838101731        4.9656041310       26.6784111299
  N         6.1103796797       -1.0948032157       28.2108941654
  C         5.8573897887       -0.6829633654       30.4642227308
  C         5.4413045663        1.5532629612       31.3802337321
  H         5.5941526780        3.1512297823       29.9731310312
  C         7.6665621547        1.6191442323       19.8224429705
  C        10.0651216821        1.4904007460       20.7708714141
  C         9.5203971302        4.0860412406       18.7030851319
  C         9.5392749405        5.4301311411       18.5728853820
  H         1.8505524999        4.4411960257       25.9177015531
  H         3.0205108766        4.2216472481       27.0673285128
  C         1.4243196894        5.1584745894       27.8407364073
  S         6.3608788708       -2.5904911457       28.8864110666
  N         6.0427483104       -2.0949529407       30.4615471638
  C         5.4439385395        0.0441396617       31.5775759528
  H         5.2289013958        2.2781611903       32.1220643567
  H         7.3333817963        0.8212186963       20.3916189314
  H         7.9469817656        1.0940207494       18.8841273633
  C         6.3857086681        2.4593953030       19.7072891960
  H        10.3399016610        1.1646343760       19.7160529938
  H         9.9780478679        0.5967447892       21.3149398189
  C        11.2931970314        2.1975645826       21.4552838231
  H         9.7097683798        3.2930909562       17.9666073893
  C         9.7911127479        6.0824859976       17.2223690980
  H         0.8009312269        4.2717423841       27.9482682754
  H         0.7332932219        5.9613160683       27.7130973496
  C         2.1941786583        5.3634830884       29.1986801518
  C         5.2639479384       -0.6378958024       32.8095950356
  H         6.5504376210        2.9623127169       18.7159464624
  H         6.0620236963        3.1624585510       20.5163876241
  C         5.2889560089        1.3831905802       19.4505806377
  H        10.9559964909        2.5239096432       22.4695285836
  H        11.6126354452        3.1213394459       20.9944392384
  C        12.4229813785        1.1050385638       21.6100417824
  C         9.9298961270        7.4811809266       17.0117818748
  C        10.1676524660        5.2879556394       16.0588028866
  H         3.1414192583        4.8287789238       29.2719863028
  H         2.3677264985        6.4072901057       29.3668202747
  C         1.2840357178        5.1396556849       30.4073244923
  H         5.2938068458       -1.6912772915       32.7149464506
  C         4.9254966117       -0.2458772412       34.0886913128
  H         5.0035081303        0.9287362647       20.3788025124
  H         5.7511772320        0.6222623942       18.7503275343
  C         4.0942545920        1.9955266574       18.7272408739
  H        12.1284345349        0.4861980897       22.4379249846
  H        12.3248926439        0.6563119334       20.6827642738
  C        13.9001008861        1.4825772278       21.7424370392
  N         9.6389076431        8.4088349985       18.0271175506
  C        10.2634311759        8.0791518986       15.8080498220
  C        10.4281168532        5.8338393544       14.8358573646
  H        10.0457349855        4.2428723652       16.0439592567
  H         0.5768679272        4.3368846636       30.2247921023
  H         1.7497003811        4.9633814495       31.3715420387
  H         0.6086489115        5.9514692236       30.6479568727
  S         4.5489810605        1.3565925844       34.5747728040
  C         4.8755305296       -1.2632542047       35.1454024161
  H         3.8929463161        2.9579286661       19.2595846333
  H         4.3425789244        2.3083551495       17.6122905007
  C         2.9937966604        0.9892182999       18.7366591455
  H        14.1132950394        2.3227364323       21.1086339781
  H        14.5385721751        0.7183997550       21.2136180153
  C        14.3032878463        1.8760296939       23.1378294716
  S         9.5755312308        9.8743694389       17.3309084384
  N        10.2801029915        9.4740249699       15.8680854778
  C        10.4351877049        7.3327552607       14.6299482438
  H        10.4150438617        5.1650020485       13.9298642122
  C         4.3969703089        0.6478373648       36.1385461560
  N         4.5434741018       -0.7241091516       36.3055718444
  O         5.0941625682       -2.4274621232       34.9216331920
  H         1.9818327517        1.4532134658       18.8017113082
  H         3.0340350373        0.3608085047       19.6526682222
  C         2.9251539848        0.1728754896       17.4418735407
  H        13.5360975455        2.5476876513       23.5473019119
  H        14.2041613681        1.0283900378       23.7934846401
  C        15.7452261387        2.4619949738       23.1078962154
  C        10.6012299298        8.0646631081       13.4104536450
  S         4.1571640158        1.6119557060       37.5802764778
  C         4.6460309621       -1.3985240278       37.6095190407
  H         2.6735477365        0.8418652744       16.6099079929
  H         3.9572963696       -0.2250763308       17.2521277621
  C         1.7867827554       -0.8540844265       17.3691041674
  H        16.1328438890        2.6369322338       24.0955443041
  H        15.7297983496        3.4634773376       22.5713104129
  C        16.7828568899        1.5458314834       22.4107725768
  H        10.1653017109        9.0784337288       13.4396076567
  C        11.2021054581        7.8459976298       12.1855696940
  H         3.7198068774       -1.2459656386       38.2172290863
  H         4.5284164712       -2.4662817764       37.2888596429
  C         5.9785709462       -0.9186594271       38.2934921929
  H         1.4961554744       -0.8620670105       16.3063500210
  H         0.9202018600       -0.5189502436       17.9276237097
  C         2.2397453143       -2.2908093258       17.7822952222
  H        16.7328078748        0.5359341439       22.8720887547
  H        16.5139309377        1.4172423664       21.3384413378
  C        18.1942073403        2.1860098511       22.4066154835
  S        11.9701938033        6.3788720164       11.6460249360
  C        11.3121748915        8.9851827154       11.2297417164
  H         6.4025404266       -1.8090256431       38.8242335906
  H         6.5721548119       -0.6799050785       37.4353697184
  H         5.8327814723       -0.1007708458       39.0025544682
  H         2.6051978329       -2.3917097852       18.8645878586
  H         2.9916861520       -2.6793264856       17.0900040094
  H         1.3625858962       -2.9643036149       17.7548363957
  H        18.3429486331        2.9618027555       21.7377955418
  H        18.8202903456        1.4181876292       22.0493216258
  H        18.4715016597        2.5664273662       23.4604309224
  C        12.4817167159        7.3024570451       10.2400951813
  N        12.0621954377        8.5710259416       10.1769219395
  O        10.9752493615       10.1483199369       11.4494216777
  S        13.1256604109        6.6048438921        8.7313403703
  C        12.1371172894        9.4428134165        9.0167541943
  H        12.4062047753       10.5021639756        9.3605263758
  H        13.1184138266        9.3306749723        8.4545864390
  C        10.8773346293        9.2735132385        8.1538299507
  H        11.1611673000        8.7120331632        7.2780821181
  H        10.0307156174        8.8587184359        8.6584682127
  H        10.5967092142       10.2129759006        7.8331452321
  H        -2.1769725932       12.4472077328       17.8951583463
  C        -2.2403738283       13.3778780472       17.3753873955
  H        -1.2859602148       13.7826859765       17.4050122635
  C        -3.1271385784       14.1839652180       18.3179521984
  C        -2.6669725241       13.1581829332       15.8844662593
  C        -3.3943560951       13.4131869004       19.5857913130
  H        -2.6665385549       15.1110647534       18.6421957357
  H        -4.1037367111       14.3781310397       17.8590056804
  H        -1.9182470862       12.5405459693       15.3775175908
  H        -3.6574865126       12.7194946237       15.9125410605
  H        -2.6021190113       14.2152546424       15.5511456310
  C        -2.1499032413       13.1068674607       20.4166350881
  H        -3.9648510228       12.4860458055       19.3415017124
  H        -4.0254914830       14.0527738917       20.1431538553
  C        -2.5083452323       12.9955777364       21.8716436971
  H        -1.7301118637       12.1597512793       20.0769684253
  H        -1.3992765857       13.8537673228       20.2217642589
  C        -1.4064284292       12.4970546100       22.8236418688
  H        -3.5464291319       12.5171910190       21.7764669697
  H        -2.7217716448       13.9780915719       22.2038214875
  C        -0.1482641103       13.4247507087       22.9845147642
  H        -1.9098069795       12.3922506042       23.7273280305
  H        -1.0538071958       11.5159305719       22.5837315078
  C         1.0830211797       12.5982580091       23.4392961903
  H         0.0502998339       13.9387444722       22.0673994709
  H        -0.4405331019       14.1527605216       23.6921844376
  C         1.4553409276       11.3405188678       22.7652513328
  C         0.7731076280       11.8824891145       24.6714311681
  C         2.3954125253       13.5078707571       23.5699366187
  C         1.3418732360       10.2056840698       23.5389766165
  C         1.9738542708       11.0207891447       21.4562656216
  C         0.9046292882       10.5510044431       24.7827763278
  C         0.2627831577       12.6130716613       25.7490122177
  H         2.5663475835       13.9298080103       22.6672302278
  H         2.1703995076       14.2676500719       24.3693389954
  C         3.7369081066       12.8466767516       23.9160254814
  S         2.0093876827        8.7395738363       22.8025656343
  C         2.1904239750        9.6709500602       21.3047647114
  H         1.9185531359       11.7572334910       20.6941050999
  C         0.5892915704       10.0099918055       26.0101129592
  H         0.1252569305       13.7042655488       25.6276409476
  C        -0.0284562315       12.0419655433       26.9049255465
  H         3.9504213454       12.0457037892       23.2431291475
  H         3.7036210518       12.4685137199       24.9147684382
  C         4.9012908632       13.7962283998       23.8939334713
  C         2.6737717908        9.1188697432       19.9966625680
  C         0.0757204322       10.7352088004       27.0630292566
  H         0.4441172029        8.9448695272       26.0371496811
  C        -0.6121578093       12.4590730570       28.0704294588
  H         5.7581071210       13.1889001596       24.2842113868
  H         4.6709636320       14.6587026732       24.5844775871
  C         5.3964965474       14.2458938185       22.5389564424
  C         2.6039370412        7.7745132280       19.6890275624
  C         3.1326064620       10.0769827781       18.9427641102
  C        -0.4655685312       10.0112404665       28.2976232288
  C        -0.7766547274       11.4043824471       28.9467851488
  S        -0.8082437920       14.0243010526       28.7608792290
  H         5.9824568231       15.1841234687       22.5897745565
  H         4.5401395640       14.2749496202       21.8275328791
  C         6.3415516450       13.1572363769       21.9629710138
  N         2.1845140137        6.7234826322       20.5081406027
  C         2.7370479667        7.3441620949       18.3713693433
  C         3.2471325281        9.6106350863       17.6799698433
  H         3.1693523112       11.1561050471       19.1155113666
  C         0.5843808543        9.2033734090       29.0495099094
  C        -1.8472193038        9.1828136870       28.1156807070
  C        -1.1660389073       11.8389762542       30.2650362290
  C        -1.1792851829       13.1995916040       30.3302816085
  H         7.2013883897       13.1002105561       22.6208467278
  H         5.8462611478       12.1803573535       21.9713603744
  C         6.9771765173       13.4446144527       20.5981729458
  S         2.1503952996        5.3330188595       19.6171955232
  N         2.6361792410        5.9411256062       18.2260815499
  C         3.0313527820        8.1774313999       17.2753450609
  H         3.6251125747       10.1810991171       16.9191070784
  H         0.8093158922        8.3600581750       28.4742796249
  H         0.2638692003        8.8696744142       29.9830848709
  C         1.9324788127        9.9122874145       29.3158402400
  H        -1.6574686676        8.4644999284       27.3497911592
  H        -2.1052226092        8.6011839451       29.0299310644
  C        -3.0273724247       10.0660974086       27.7510821608
  H        -1.3037095479       11.1184396488       31.0748810007
  C        -1.3864853582       13.9186613337       31.6086048750
  H         7.7843932541       12.6785157639       20.4924922776
  H         7.5042485875       14.4350493587       20.6184022081
  C         6.0064484060       13.3228772520       19.4669858861
  C         3.1948161292        7.5397862588       15.9484276010
  H         2.4108932839       10.2140338909       28.3403296785
  H         1.7960576100       10.9209278303       29.7406472655
  C         2.9374733785        8.9670499798       30.1193368340
  H        -2.7071545291       10.6694523618       26.9855345188
  H        -3.2798971890       10.7283948602       28.6156863249
  C        -4.3005617464        9.2467149417       27.4451097255
  C        -1.4992950332       15.3309148083       31.6467204653
  C        -1.6306055737       13.0896870453       32.8504725213
  H         5.7566945267       12.2873812270       19.3647153514
  H         5.1546825445       14.0203042692       19.6753491661
  C         6.7411605454       13.5676260553       18.1392291208
  H         3.2726670817        6.4233927521       15.9377511273
  C         3.3907983545        8.0729908378       14.7041051845
  H         3.2743149968        8.2603458195       29.3932463089
  H         2.5544362105        8.3759799164       30.9088432305
  C         4.2092143388        9.5993771774       30.6165264355
  H        -3.9966408566        8.5468272869       26.6548607244
  H        -4.7547581203        8.8093939376       28.2519521554
  C        -5.3041667165       10.1512347056       26.7399092187
  N        -1.2892882065       16.3162270239       30.6160659219
  C        -1.8582708454       15.9809199535       32.8493248853
  C        -1.9174257976       13.6844024971       34.0575763190
  H        -1.4888913267       12.0043057021       32.8464568614
  H         6.1211811415       13.8985025116       17.3354471164
  H         7.6090860187       14.2009082343       18.1972817343
  H         7.1072955600       12.6021881942       17.7803572464
  S         3.5489294291        9.7225366904       14.3042560485
  C         3.4414742012        7.1336424496       13.5492291078
  H         4.3848292059       10.5077427722       30.0590774834
  H         4.1225401010        9.8977263889       31.6899984003
  C         5.3660589857        8.6064407920       30.4847269443
  H        -4.7386307743       10.6117207054       25.8647156088
  H        -5.5612325906       10.9886902729       27.4159104715
  C        -6.4411949279        9.2492363944       26.3319058287
  S        -1.6030026925       17.8199796807       31.1812266048
  N        -2.0920303310       17.3735046091       32.6695912100
  C        -2.0078718682       15.2186968844       34.0817595628
  H        -2.0250439317       13.1206479303       35.0006869124
  C         3.8732057798        9.1315419318       12.6152329663
  N         3.7985869971        7.8061892452       12.4763841782
  O         3.3888302195        5.8925649024       13.7557564522
  H         6.2735195548        8.9015793411       30.8352873039
  H         5.6673565270        8.3888410220       29.3919487272
  C         5.1301081759        7.3036676044       31.2179673862
  H        -6.1789286659        8.8188372421       25.3536239543
  H        -6.7201392414        8.4984749753       27.1215666880
  C        -7.6225088917       10.1720658840       26.1409836653
  C        -2.3537329861       16.0410405547       35.2263020173
  S         4.4592368758       10.1019247594       11.2958516960
  C         3.8034110798        7.1572883234       11.2181477335
  H         4.4926384346        7.4335447820       32.1165803938
  H         4.4594099502        6.8001071491       30.5381537091
  C         6.1809447255        6.3033046499       31.6335445147
  H        -7.3071195462       10.8675201618       25.3610053240
  H        -7.7987056406       10.7837500416       26.9909090566
  C        -8.8649034897        9.4778384808       25.5741643155
  H        -2.2307466821       17.0927069485       35.1115867362
  C        -2.8748467224       15.6969497100       36.4183425581
  H         4.4023469386        7.6903326286       10.5019493197
  H         4.3398883970        6.2195099224       11.4804293152
  C         2.4606129424        6.7427816941       10.8061286157
  H         5.7373988366        5.4741070297       32.2555813146
  H         6.9405256772        6.8284851259       32.3108633746
  C         6.9094503432        5.6640704135       30.4836167292
  H        -9.2598926596       10.0526136142       24.7150219967
  H        -8.7652017892        8.4450393838       25.3483798481
  C        -9.9035419426        9.4450864599       26.6734609602
  S        -3.5186487928       14.1394393558       36.9851211957
  C        -3.0518875073       16.7849481815       37.3860874785
  H         1.9538598446        5.9983464679       11.4598520609
  H         1.8016829897        7.5799329931       10.7226624925
  H         2.5849053201        6.4305602819        9.8117220603
  H         6.4308675958        5.8452648282       29.5265637452
  H         7.0151608463        4.5765082723       30.6045629397
  H         7.8764095599        6.1920005630       30.4596528401
  H       -10.8543150313        9.0529549092       26.2922732413
  H       -10.0619500213       10.4547781348       27.0346162067
  H        -9.5488361117        8.8138799660       27.5424643115
  C        -3.8125268728       14.9656326579       38.5009715684
  N        -3.5828126918       16.3011324046       38.4812063037
  O        -2.8142991537       17.9847210748       37.2342593325
  S        -4.6542347717       14.2667970492       39.9055677928
  C        -3.9327903477       17.2100463938       39.5791220231
  H        -4.2311524156       18.1727345333       39.1727492709
  H        -4.8315074979       16.9425715200       40.1262328820
  C        -2.7507572271       17.4956412723       40.5120134349
  H        -1.9722889761       16.7027326314       40.3244606374
  H        -2.3471626240       18.4877322190       40.3154757746
  H        -3.1926766228       17.5765304633       41.5246628974
