352
 i =     1700, time =     1700.000, E =        47.2207347234
  H        11.8966524621        6.9619834091       32.4926250177
  C        11.3881024994        5.9560759063       32.5141213138
  H        12.3220316838        5.2651465409       32.2206860908
  C        10.4024880404        5.7286365358       31.3380689804
  C        10.7685938129        5.5345453402       33.7995210833
  C        11.0337358714        6.0704813186       29.9596963601
  H         9.8659031221        4.7309139611       31.3788854205
  H         9.5401309757        6.4463255485       31.2972666591
  H        10.1752788210        6.3523325614       34.3838721320
  H        10.0036884380        4.6606919321       33.7718705722
  H        11.4717948974        5.2338562428       34.6359417672
  C        10.1262193398        5.6605224881       28.9029524259
  H        12.0903571605        5.6481335534       29.8235348803
  H        11.3206729789        7.1212407414       30.0622899488
  C        10.7470441236        5.6231392419       27.3582071575
  H         9.7086058409        4.7394421220       28.9623393012
  H         9.2379543711        6.3282818439       28.9529357088
  C         9.7284801364        5.1864605565       26.2747225756
  H        11.6897936786        5.1110417482       27.3378416499
  H        11.0865536412        6.6021415358       26.9862277588
  C         8.3900623741        5.9049667032       26.1664705725
  H        10.2309084426        5.2947400071       25.2535532356
  H         9.4397159029        4.2424432513       26.2671577709
  C         7.3073218942        5.0678713158       25.4211581616
  H         8.0992473183        6.1672197479       27.2135461507
  H         8.5156104253        6.7837514353       25.5174991698
  C         6.9552357011        3.7238621405       25.9953598198
  C         7.8167434100        4.3523337457       24.1983389998
  C         6.0655563198        5.8707081936       25.0531411151
  C         7.4033822283        2.6203560469       25.3272644411
  C         6.2654827942        3.3680638678       27.1987159119
  C         7.8082002966        2.9505240902       24.0744499193
  C         8.3152505711        5.0019444791       23.0331995805
  H         6.3472770077        6.6263545198       24.3416500174
  H         5.8406129402        6.4960173724       25.9239751743
  C         4.9049355231        4.9110266969       24.3962756769
  S         7.1141030628        1.1679282841       26.1131827847
  C         6.3984011743        2.0015522167       27.5216761099
  H         5.8255058771        4.1279666205       27.7965222602
  C         8.1539199604        2.3178342600       22.9182017909
  H         8.1728705823        6.0761771322       23.0268447454
  C         8.6804303985        4.4006193576       21.9057242239
  H         5.3448257637        4.3945099207       23.5244730573
  H         4.5390219814        4.0784600025       25.1292007599
  C         3.6748492833        5.6447056556       24.1550424404
  C         5.8718685084        1.4122831364       28.7364807692
  C         8.7084126614        3.0071871459       21.8279351834
  H         8.0052853789        1.2812595030       22.8515610718
  C         9.0486067079        4.7786993521       20.6634612510
  H         3.1581991683        5.1324795606       23.4070245626
  H         3.9735666876        6.4282695406       23.4497641413
  C         2.8282749481        6.2761354383       25.2474867951
  C         5.8649865941        0.0452184024       29.0457591760
  C         5.4351978887        2.2804315005       29.8947338669
  C         9.1220572112        2.3189958165       20.5049239377
  C         9.3256662723        3.7018875012       19.8495188173
  S         9.1383288631        6.2961261410       19.9172855460
  H         2.0153556504        6.8777325246       24.7979825974
  H         3.3680203439        6.8680665507       25.8470511046
  C         2.2798649518        5.1135601792       26.1664952408
  N         5.9504140446       -0.9493960545       28.0667442591
  C         5.5295042700       -0.5294603709       30.2670702832
  C         5.1609305758        1.7590388100       31.1482158750
  H         5.2716951786        3.3707759776       29.7427886730
  C         7.9958333898        1.4535084968       19.8679911728
  C        10.4035304274        1.6071852807       20.6268668341
  C         9.7351362511        4.1912284516       18.5533650377
  C         9.5500822152        5.5331406018       18.3889915701
  H         1.7096520697        4.4825662676       25.5046448521
  H         3.1124852417        4.5153814148       26.3577239016
  C         1.4129544676        5.6364024475       27.3681619211
  S         5.9133642210       -2.4247867208       28.7375768142
  N         5.6622479967       -1.9517629869       30.3023940589
  C         5.1753473502        0.3587014114       31.3326840931
  H         4.8663986577        2.3123802909       31.9856433923
  H         7.5838119324        0.7715509858       20.5715420052
  H         8.5168770023        0.8421371297       19.1763656497
  C         6.8361008666        2.2763197598       19.4087961247
  H        10.5492265775        1.5971207900       19.4790578170
  H        10.2489553708        0.5850455877       21.0199383045
  C        11.4241112407        2.4438941790       21.3514321707
  H         9.8424228165        3.3879779210       17.8463364265
  C        10.0376625778        6.3101654544       17.2143205598
  H         0.5001107629        5.0540275168       27.4124647771
  H         1.1480904859        6.6313478664       27.2587011704
  C         1.9304016629        5.5178168725       28.7603591351
  C         5.0443530395       -0.3606138238       32.6262236437
  H         7.1035403180        3.0316622815       18.6788520776
  H         6.4816015215        2.9682686489       20.0670472468
  C         5.7303911764        1.4728014848       18.8083350937
  H        11.2059453739        2.6380622553       22.3995868357
  H        11.6784237786        3.3799404952       20.7070514295
  C        12.8158348417        1.7015887670       21.3843424468
  C         9.9628625966        7.7314098645       17.1120708571
  C        10.4564945500        5.6922062322       16.0054118333
  H         2.3707749614        4.4802238791       28.8876667038
  H         2.6611724296        6.3088808373       29.0125958395
  C         0.9106528161        5.4093257711       29.8744409450
  H         5.2684376650       -1.4143685739       32.5444789969
  C         4.6837207971        0.0791296755       33.9097036319
  H         5.3956806947        0.5538295757       19.4212814709
  H         6.2745310715        1.0329309311       17.9238507562
  C         4.4978477814        2.2656844869       18.2185365249
  H        12.6120612565        0.8209631041       21.9868012841
  H        13.0217025236        1.3880562805       20.3822989710
  C        14.0321582194        2.4820167640       21.6902238231
  N         9.6783555761        8.7055860176       18.0795623623
  C        10.4043294473        8.4492077715       15.8869870203
  C        10.7658333974        6.3410424465       14.8433645735
  H        10.2871063541        4.6117110806       15.8603801352
  H         1.4285161086        5.4169404733       30.7881256350
  H         0.2379636222        6.3100111460       29.8043969492
  H         0.1755341392        4.5143576136       29.7475650265
  S         4.3233261886        1.6705307448       34.3412521592
  C         4.5440570939       -0.9429832861       34.9568346346
  H         4.5459250834        3.2672545573       18.7020297771
  H         4.7151385823        2.4170693280       17.1475328592
  C         3.1194206987        1.6800009734       18.2738641027
  H        13.7361785318        3.3766658432       22.3061526336
  H        14.2366554497        2.7602592066       20.6834736269
  C        15.0511815894        1.6703851847       22.4386268455
  S         9.8559979632       10.2596994090       17.5679814002
  N        10.4045248783        9.8434665497       16.1046241099
  C        10.8262382578        7.7889788630       14.7330617533
  H        10.9699896792        5.8867431749       13.9764095677
  C         3.9786514183        1.0454091213       35.9317800718
  N         4.1431270086       -0.2958341446       36.0946726887
  O         4.8122149245       -2.1481606902       34.7437053473
  H         2.3707288775        2.3401215411       17.6200001330
  H         2.6755506975        2.0214782224       19.2102344170
  C         2.9419289384        0.2589439938       17.7439642695
  H        14.7677863260        1.0310613176       23.2412909935
  H        15.6296185026        1.1003552723       21.7010449333
  C        16.0855098594        2.6723469582       22.9902331440
  C        11.0943176097        8.6606346307       13.5213698643
  S         3.5727881559        1.9578659730       37.3767873086
  C         4.2238952908       -1.0518725476       37.2951449403
  H         2.5150579766        0.2871937700       16.6855006407
  H         3.7582048939       -0.3318167029       17.6163527189
  C         2.0746226671       -0.6419782588       18.6681759120
  H        15.7195694985        3.1327680727       23.9122210576
  H        16.1121008790        3.3895175939       22.2287238305
  C        17.4307701894        1.9326965834       23.2970985699
  H        10.7942900401        9.6378493674       13.7205978187
  C        11.6526859863        8.3011295264       12.3105175407
  H         3.5468360981       -0.7651296850       38.0385399639
  H         3.9472350669       -2.0676337270       37.1532944414
  C         5.5592409281       -1.2354226627       37.8590875249
  H         1.1146321767       -0.2371485216       18.6432259165
  H         2.4893631341       -0.4767695413       19.5977040452
  C         2.0668379624       -2.0752733779       18.0896886526
  H        17.8903548104        2.5195869859       23.9601192578
  H        17.1897455628        0.9652077169       23.7624484152
  C        18.3304835216        2.0196503584       22.0069350224
  S        12.2605562083        6.8015762699       11.8196180865
  C        11.7590385069        9.3920875564       11.3186064295
  H         5.6678416648       -2.0855549025       38.6273836758
  H         6.4473550227       -1.5130326162       37.2516614512
  H         5.8495096239       -0.3788535712       38.4152176346
  H         1.2929581910       -2.7271907110       18.4911699860
  H         2.8763791785       -2.6581812604       18.5667909458
  H         2.4423857716       -2.1982820518       17.0292903603
  H        17.7630267272        1.7782050818       21.0282027504
  H        19.2359084484        1.4523431344       22.0585182726
  H        18.8690217468        2.9579937102       21.9188608904
  C        12.6270849891        7.6187060044       10.2933855944
  N        12.3927233225        8.9150141303       10.2577697477
  O        11.4307391754       10.5536667584       11.4869376869
  S        13.6682150795        6.9040788914        9.0019804887
  C        12.5844722900        9.6744071980        9.0119357998
  H        12.7786052915       10.6892718836        9.3708431403
  H        13.4188836008        9.3635974589        8.3656611321
  C        11.4049327538        9.5785233324        8.1101732672
  H        11.0684153879        8.5039297749        8.1495488154
  H        10.5762032216       10.1811805250        8.5386667822
  H        11.6490367047       10.0068517493        7.1192452669
  H        -3.4922887819       14.7897881531       16.7131924440
  C        -3.0865748502       13.7899679933       16.5838701887
  H        -3.9287851464       13.0374656471       16.6966551619
  C        -2.1171828403       13.4958049558       17.7260108854
  C        -2.3122640423       13.7188588175       15.2362944402
  C        -2.7286142284       13.6524329933       19.0780025226
  H        -1.8989127250       12.5058248432       17.6072581173
  H        -1.1353876059       13.8596033646       17.6896872002
  H        -1.3452066489       14.0736669194       15.3977540035
  H        -2.1560747900       12.7573874689       14.7043656402
  H        -2.7992858124       14.2879923740       14.5350379039
  C        -1.9043814878       12.9478996010       20.1518389883
  H        -3.4874620355       13.0335003067       18.7038569658
  H        -3.1930251451       14.5425429417       19.3619432554
  C        -2.2260694710       13.2200866160       21.6115902881
  H        -1.8931073518       11.8581425619       19.9305722043
  H        -0.9096781727       13.1579685363       19.8081536621
  C        -1.2170681805       12.7260932104       22.6096598479
  H        -3.1879232672       12.8280986532       21.8615019404
  H        -2.4067665349       14.3301635172       21.6879188052
  C         0.0435016949       13.5010857269       22.6246232718
  H        -1.6665714226       12.5744468739       23.5409686757
  H        -0.9766903974       11.7857779812       22.1557733085
  C         1.2114539757       12.7218250154       23.2513172175
  H         0.2482896277       13.8919367729       21.6659761547
  H        -0.0947014236       14.4299299464       23.1820740371
  C         1.4798927558       11.3588436038       22.5504285250
  C         0.7129667268       12.0061358037       24.5089223952
  C         2.5133837091       13.5941449953       23.2967456822
  C         1.2278718647       10.2592172230       23.4856459119
  C         1.8582804675       10.9734155091       21.2454637767
  C         0.7973622806       10.6651949696       24.7125396586
  C         0.3167661347       12.7696334019       25.6562267661
  H         2.7274882825       13.9844588283       22.3550721421
  H         2.3407587147       14.2961653742       24.0946476012
  C         3.6576584644       12.8958345415       23.9239406746
  S         1.5748779288        8.7914777944       22.6837543253
  C         1.9641951732        9.6022390640       21.0946081536
  H         2.2150699923       11.6442899867       20.5851890808
  C         0.3807076340       10.0646819880       25.9254156746
  H         0.3103970542       13.7864607380       25.4761903122
  C        -0.0774611015       12.1555807437       26.8216350781
  H         3.8535266816       11.9319202966       23.5535432610
  H         3.4877396158       12.7643220176       25.0205213953
  C         4.9672622984       13.7286864307       24.0570501457
  C         2.3324280151        8.9983875398       19.7740497343
  C        -0.0870856243       10.8050255185       26.9833649535
  H         0.4615204438        9.0249925485       25.8890071923
  C        -0.4908750262       12.5175643594       28.0818113051
  H         5.6147336997       13.1094622289       24.7356625150
  H         4.8441383104       14.6899588921       24.7557596174
  C         5.6084055042       13.9683979768       22.7005069339
  C         2.3880381919        7.6218048538       19.4835741224
  C         2.9577471677        9.8027380668       18.7310488115
  C        -0.5709715473       10.0946702523       28.2730253376
  C        -0.8540367070       11.4986198857       28.8676963332
  S        -0.8084221484       14.1236678564       28.6919822347
  H         6.3010818663       14.9330578908       22.7401728919
  H         4.8038057564       14.1564182775       21.9687732280
  C         6.5823925433       12.8370459250       22.1507092625
  N         2.0401347345        6.6495738827       20.4661151930
  C         2.7005060014        7.0286524743       18.3359329565
  C         3.2839555800        9.2342827434       17.5192192805
  H         3.3064786858       10.7681425503       18.8456929917
  C         0.3673132141        9.2157702122       28.9814969899
  C        -1.9034136745        9.3570423928       27.9696185034
  C        -1.3153604015       12.0538854754       30.0517820512
  C        -1.3648633411       13.4177953994       30.1698519700
  H         7.2797050776       12.7716434695       22.9140133008
  H         6.0230067839       11.9502618484       22.1063153354
  C         7.2502992548       13.1228878230       20.8824164742
  S         2.1055807394        5.1620874792       19.8198019374
  N         2.6270313472        5.5794574808       18.4151531885
  C         3.1270855895        7.7909407788       17.2936737589
  H         3.6489602985        9.9621328429       16.9016501450
  H         0.8239336556        8.5016148070       28.2725151182
  H        -0.2200982772        8.6423606864       29.7102850313
  C         1.4084891585       10.0364437134       29.6333413114
  H        -1.5235950744        8.5060640094       27.4578318514
  H        -2.2072577739        8.9819380142       28.9586859009
  C        -2.9787192406       10.0843112270       27.1580366105
  H        -1.4678756182       11.3731676807       30.8774663760
  C        -1.6272602716       14.1990431799       31.4157573172
  H         8.0413646487       12.3500689764       20.7052985782
  H         7.7388099706       14.0063340138       21.0909553484
  C         6.4585405320       13.2618133097       19.6375886350
  C         3.3638496089        7.1252034088       16.0104945655
  H         1.7523507378       10.8516951385       28.9510365474
  H         0.9492674574       10.5482744227       30.4897023079
  C         2.5150179533        9.1780062965       30.1365570520
  H        -2.4146841694       10.4873007559       26.2548797447
  H        -3.2284687661       11.1017053646       27.6708921920
  C        -4.2297857048        9.2461724295       26.9287248734
  C        -1.7970937653       15.6258424230       31.5168734858
  C        -2.0315542629       13.5303784409       32.6670922061
  H         5.6572145271       12.5665395505       19.6757180653
  H         5.8290869188       14.1927346579       19.7191183069
  C         7.3211842468       13.5685722810       18.3650411574
  H         3.3105385156        5.9997091464       16.0369309723
  C         3.7842676609        7.5807961674       14.7892991752
  H         3.0019712013        8.8013654039       29.2761889811
  H         1.9174552116        8.5324523239       30.7624472728
  C         3.4572621227       10.0619513749       31.0224553984
  H        -4.1127862503        8.3150417091       26.5003728373
  H        -4.3666263182        9.0546123421       27.9252653325
  C        -5.3921639014       10.1121099400       26.3842284032
  N        -1.4473787966       16.5656885954       30.4947063398
  C        -2.2368592155       16.3575396315       32.6192610968
  C        -2.4807697365       14.2124686985       33.8163125517
  H        -2.1339587149       12.4648539695       32.7442963177
  H         6.9051756991       14.3860653266       17.7148601315
  H         8.2364016062       13.7765439540       18.7938101383
  H         7.4623060809       12.7311564666       17.6602375686
  S         3.9987795892        9.1970221279       14.4139516400
  C         4.1227312119        6.6841455303       13.6218798022
  H         3.6621687593       10.9433294464       30.4250391987
  H         3.0009173427       10.5358149549       31.9349685447
  C         4.8750175953        9.5754492377       31.2522353415
  H        -4.8269881381       10.4529975928       25.4298535835
  H        -5.5845253144       10.9710346863       27.0237405533
  C        -6.6727981689        9.3851627301       26.1678333436
  S        -1.7446540053       18.1185853897       30.9195501155
  N        -2.1867356203       17.7470509862       32.4293371872
  C        -2.5365633391       15.6900414549       33.8281403993
  H        -2.5383662175       13.5104055698       34.6867129039
  C         4.3039752081        8.7216536072       12.7522490329
  N         4.3707457377        7.3487596655       12.5521905731
  O         3.9735543232        5.4974798457       13.6902717057
  H         5.1467857255       10.0809670777       32.1548338243
  H         5.3894310631        9.8665359206       30.3566410254
  C         4.8975781070        8.0492230801       31.5575761722
  H        -6.5988165740        8.4893512731       25.5137558485
  H        -6.9653634920        9.0011752582       27.1664124897
  C        -7.8201187910       10.2863814769       25.7763650072
  C        -2.9906467325       16.4179673111       34.9805238442
  S         4.8808724630        9.8349809652       11.4502001712
  C         4.3752533941        6.7972804788       11.1624487307
  H         5.4022488514        7.9463628475       32.4931411659
  H         3.9496126479        7.6936244256       31.6816015119
  C         5.6265161135        7.3783239976       30.3919577245
  H        -7.5160694571       10.5167386876       24.7391355937
  H        -7.8779572875       11.1484076054       26.3570066286
  C        -9.0350430504        9.3766181198       25.6696854656
  H        -2.8620326918       17.5520813251       34.9105162521
  C        -3.2664263201       16.0434025957       36.2543694586
  H         4.9022952750        7.3855670161       10.3300180735
  H         4.9573693891        5.9032113161       11.1702136520
  C         2.9292933974        6.5939351552       10.6505360170
  H         6.5294219488        7.8661600270       30.1057566559
  H         4.9423329020        7.3135737726       29.5118910121
  C         5.9664714287        5.9705273800       30.6881329813
  H        -9.6662759795        9.8674446292       24.9442091430
  H        -8.8586021432        8.3828025813       25.1790811350
  C        -9.8119636300        9.3633599303       26.8953714252
  S        -3.7399324457       14.5336550319       36.9049555351
  C        -3.4120138753       17.1064568000       37.2526403440
  H         2.3835864704        7.5590836744       10.4253520862
  H         2.8596727297        5.9748177835        9.6583960929
  H         2.2575676554        6.1683298152       11.4581860433
  H         6.7592031111        5.6311481108       30.0194862019
  H         5.0667133825        5.3996133287       30.7899574227
  H         6.4673732872        5.8114314853       31.6995726005
  H        -9.8831061425       10.2885127133       27.3937290726
  H        -9.4450811855        8.4931688873       27.5324865234
  H       -10.8457357733        9.1644467680       26.6784903692
  C        -3.8557274273       15.2616202849       38.4878577450
  N        -3.9141678956       16.6108459967       38.4212418614
  O        -3.3537856332       18.3076930879       36.9970043943
  S        -4.3458845370       14.4166828813       39.9492435268
  C        -4.2154289933       17.5037774386       39.6284585614
  H        -4.7175323370       18.4408889771       39.1916840765
  H        -4.9430249613       17.0679790142       40.3795108823
  C        -2.9152647934       17.9780963427       40.3666629010
  H        -2.0590581687       18.2097349432       39.8256614139
  H        -3.1067659256       18.9431217040       40.8558928362
  H        -2.6661004337       17.1694427825       41.1016119482
