352
 i =    47600, time =    47600.000, E =        24.7760614526
  H        10.5948273037        7.3947236917       33.2636594942
  C        11.0338238355        6.6112828340       32.6428614360
  H        12.0280522504        6.8605677943       32.2848755363
  C        10.1165450173        6.3562538859       31.4283867278
  C        11.2543202863        5.3898933507       33.5181386592
  C        10.8966165284        5.9951490372       30.2206853681
  H         9.3347118460        5.6252161329       31.6321187189
  H         9.5328724493        7.2394475436       31.1392126884
  H        10.9228888533        5.5521987878       34.4879424818
  H        10.7457081445        4.4160721574       33.2181037040
  H        12.3393583387        5.1947102779       33.5704719764
  C         9.9600787413        5.5693221550       29.0935056137
  H        11.5993756365        5.1265866452       30.3377112246
  H        11.4775404710        6.8535595586       29.8474883309
  C        10.6209541889        5.5123127311       27.7623885477
  H         9.6602665902        4.5597547534       29.2600226933
  H         9.0380635130        6.2063082868       29.0381509181
  C         9.7571727354        5.0060832730       26.5588769885
  H        11.4984254712        4.8977966580       27.7054397967
  H        11.0972161051        6.4556688229       27.4848120194
  C         8.5472190724        5.8095505446       25.9697140140
  H        10.4644098381        5.0255417876       25.7040141995
  H         9.4922733470        3.9459479861       26.6579280041
  C         7.4009773858        4.9782048843       25.2536896221
  H         7.9898974777        6.3870769016       26.7549873163
  H         8.8833425051        6.6233534243       25.3456294437
  C         7.0744519575        3.6475005504       25.9921717198
  C         7.7336427604        4.2728312111       24.0263838450
  C         6.0507562450        5.8142734251       25.1258862989
  C         7.3000468966        2.5302936854       25.2185439354
  C         6.5990857082        3.2517701380       27.2671972687
  C         7.6646878291        2.9508703556       23.9282051363
  C         8.0983285195        4.9432656708       22.8629835264
  H         6.3137231282        6.7090386982       24.5457728823
  H         5.7849068083        6.1539773323       26.1227258548
  C         4.8751843158        5.0444650409       24.4740314166
  S         6.9017111280        1.0535868402       26.0133554477
  C         6.4053945568        1.9152733750       27.4363351573
  H         6.1890958661        4.0023086680       27.9560494541
  C         7.9562796259        2.3284184692       22.7731097416
  H         8.2845723478        6.0024306420       23.0768291942
  C         8.4107529534        4.3381482809       21.6781151981
  H         5.2337939848        4.7929395247       23.4127419452
  H         4.4939494223        4.2438332133       25.1408402912
  C         3.6281581349        5.9564880416       24.2253531723
  C         5.9343208015        1.2574901200       28.7782898473
  C         8.2148219528        2.9711309855       21.5549463997
  H         7.8830917730        1.2923629950       22.7339998469
  C         8.7388830635        4.7978133846       20.4388239080
  H         2.9764846223        5.3433361417       23.6024081517
  H         4.0624470195        6.6717031633       23.5063487092
  C         2.7212727799        6.3852479442       25.3836806707
  C         5.9352206246       -0.1095098444       29.0542150697
  C         5.4954826380        2.1347002827       29.9103189688
  C         8.6202734730        2.3484213308       20.1985727161
  C         8.8592439121        3.7827657300       19.6122454743
  S         9.1076388313        6.3742948576       19.6969705636
  H         1.8207464628        6.7304137806       24.9390539292
  H         3.1724458352        7.3102404115       25.7528426998
  C         2.6335212672        5.4408108250       26.5939287368
  N         6.1848328190       -1.0326117340       28.0338154616
  C         5.6143947868       -0.6727917156       30.2203134787
  C         5.1480467645        1.5821027444       31.1159599677
  H         5.6800124688        3.1415397614       29.9048523159
  C         7.5960539341        1.5119879539       19.3888547361
  C         9.9584166273        1.6638921063       20.6146964357
  C         9.2936938911        4.1883321258       18.3279518023
  C         9.4507456860        5.5336641876       18.1859530235
  H         2.4588251150        4.4424520200       26.0812906136
  H         3.5915574936        5.1930429579       27.0754608624
  C         1.4916152450        5.6994368625       27.5752148615
  S         6.1155847589       -2.4923789936       28.7203843494
  N         5.7920326377       -2.0570725310       30.2497120975
  C         5.3699804985        0.1070406737       31.3560958667
  H         4.9325871842        2.2698883010       31.9187925127
  H         7.2158898952        0.6930962373       19.9993127201
  H         8.0511429549        0.9969009467       18.5827210460
  C         6.4122697638        2.3279613977       18.8598478402
  H        10.1357959136        0.8951998005       19.8772399168
  H         9.8454528093        1.1581469596       21.5726507526
  C        11.1054144251        2.6641226602       20.8913636082
  H         9.2512037708        3.4636195913       17.5259784790
  C         9.8973817222        6.2604170363       16.9191892471
  H         0.7105439495        5.0202471696       27.5666436563
  H         0.8873616180        6.5485374229       27.3723132200
  C         2.0461410436        5.6912671368       29.0785531624
  C         5.1782048332       -0.5733566976       32.6235109023
  H         6.8143791862        3.1310870211       18.2040082432
  H         5.9133929811        2.8125877619       19.7651146582
  C         5.2808296356        1.4432788401       18.3124274417
  H        10.9345934686        3.3302148370       21.7088873570
  H        11.4551606060        3.2309073987       19.9563183707
  C        12.3378787980        1.8766340126       21.3635957530
  C         9.9735683897        7.6774383364       16.7190784224
  C         9.9473761141        5.4544815251       15.6518614263
  H         2.7695753241        4.9569976946       29.3063514606
  H         2.6626554288        6.5505651712       29.2629420174
  C         0.9282176799        5.6181916256       30.0973766003
  H         4.9706632185       -1.6075935585       32.4383527375
  C         4.7949284565       -0.1685577598       33.8868685634
  H         4.9514861401        0.7878282513       19.0967378891
  H         5.6826848682        0.7940291230       17.5531637587
  C         4.1370727594        2.2389404026       17.7423992911
  H        12.2183602518        1.3382766644       22.3058239706
  H        12.4431688065        1.0603405287       20.6179669922
  C        13.6305015415        2.5818226852       21.1375837560
  N         9.8770870163        8.6326819316       17.7108757936
  C        10.3315448414        8.2729351751       15.5002119454
  C        10.2522261070        6.0387860359       14.4168260697
  H         9.7859940441        4.4094905876       15.7998175252
  H         0.2367949967        4.7365953130       29.9089136041
  H         1.3132467247        5.5118608947       31.1306146032
  H         0.3447759549        6.5448134531       30.0828648661
  S         4.4927867594        1.4942691963       34.3448041404
  C         4.6463508465       -1.1450029485       34.9814203181
  H         4.1694282054        3.1540194163       18.3581139210
  H         4.3450311421        2.5165739281       16.6712788673
  C         2.7227266420        1.5253411897       17.8241231291
  H        13.5322261767        3.5306093024       20.5755526762
  H        14.3281949012        1.9300445950       20.5490633980
  C        14.3180861176        2.9431522088       22.4743380403
  S        10.0961547874       10.0940098130       17.1408347531
  N        10.4655607760        9.7167737473       15.5965724166
  C        10.5305457646        7.5073029729       14.2859608420
  H        10.3358470910        5.3896991094       13.5018615638
  C         4.0990191613        0.8904569018       35.9683285980
  N         4.3047983393       -0.4379963119       36.0854707501
  O         5.1020038274       -2.2882036788       34.8930981527
  H         2.0424657857        2.1655380731       17.4458355463
  H         2.3605071898        1.2638837562       18.7702908808
  C         2.6343181338        0.2352656298       16.9660856045
  H        15.1345639509        3.6698011677       22.2619101044
  H        13.6370640890        3.3553164057       23.1830458101
  C        15.0030216567        1.7507979207       23.1096810642
  C        10.9375799673        8.2570011638       13.1740468489
  S         3.8035694321        1.8341071313       37.3997986612
  C         4.3897938690       -1.1509376098       37.3493931891
  H         2.6951559054        0.4448700519       15.9026739145
  H         3.4399803997       -0.4660191048       17.2976401875
  C         1.3570337814       -0.6401089538       17.2147233390
  H        14.9218192580        0.8426982350       22.5066526981
  H        14.5017765501        1.4287237164       24.0415363445
  C        16.5079830144        1.8845853778       23.4124845485
  H        10.6598282130        9.2260645550       13.2038283236
  C        11.5875078844        7.8146668761       12.0498026789
  H         3.6731172526       -0.8853292337       38.1686716158
  H         4.0909287042       -2.1568595772       37.1217066127
  C         5.8321009975       -1.2169382410       37.8492413716
  H         1.1143179292       -1.2364261015       16.3295505142
  H         0.5520270512        0.0665160119       17.5263515789
  C         1.6966418226       -1.5889217765       18.4292818402
  H        16.4851577766        2.7145401741       24.1210563422
  H        16.7551456039        1.0475043561       23.9436507936
  C        17.3060983773        2.1475388596       22.1468034774
  S        12.2157736948        6.2536787912       11.6315276073
  C        11.7594801628        8.8656571340       11.0372074799
  H         5.9265445219       -0.8187481483       38.8655327587
  H         6.2098159745       -2.3070181028       37.8577884152
  H         6.4898180665       -0.6474315111       37.1874932410
  H         2.2018727321       -1.1143561514       19.2600243010
  H         2.2968758602       -2.3704382905       18.0072256566
  H         0.6755290920       -2.0615642308       18.7216075707
  H        17.4884206525        1.2434344935       21.6448054313
  H        18.3019248811        2.6182426731       22.3093349216
  H        16.8616510252        2.8126999058       21.4264530715
  C        12.6467852489        7.0341142169       10.0915078090
  N        12.3294637137        8.3210068588        9.9786030751
  O        11.2402087914        9.9910516832       11.1189705220
  S        13.3863575694        6.1896515490        8.7297342525
  C        12.4381438442        9.0540417362        8.7887211452
  H        12.7441975407       10.1016121126        9.0903502879
  H        13.2888258612        8.7917942171        8.1488457932
  C        11.1787860284        9.2356629516        7.9734008246
  H        11.4104085808        9.8083626824        7.0575737762
  H        10.8850688462        8.2848060406        7.4750469734
  H        10.3734601217        9.7188809148        8.4292074752
  H        -1.2671437365       13.1612389231       17.1344176938
  C        -1.9176168808       13.9964162735       16.7762957996
  H        -1.3360273708       14.6820868847       16.2548913668
  C        -2.4003644524       14.8131283683       18.0378755808
  C        -3.0683866993       13.5114038408       15.8960055108
  C        -2.9214761970       13.9258648006       19.1692122619
  H        -1.5994693385       15.4901817440       18.3802658973
  H        -3.2514138902       15.4675541093       17.6954336895
  H        -3.3433577811       14.3461990258       15.2595035543
  H        -2.7965665388       12.6287647247       15.2877913872
  H        -3.8558027217       13.2621667110       16.5519679619
  C        -1.8071156303       13.5896578696       20.1639263814
  H        -3.3963792473       13.0756715143       18.7307406243
  H        -3.6917811288       14.5244115444       19.6607226705
  C        -2.1890677723       13.5777649130       21.6469706293
  H        -1.3622338786       12.6484154822       19.8976253978
  H        -0.9574051358       14.2678074648       19.9864030363
  C        -1.1747661926       12.9761768483       22.5973641256
  H        -3.2006497357       13.0814535588       21.7325902620
  H        -2.3725033153       14.6844203477       21.9442627817
  C         0.2178978486       13.6914992824       22.7087962924
  H        -1.5812908755       12.8156446811       23.6136267606
  H        -1.0336199590       11.9096008293       22.3312180661
  C         1.3701401946       12.9822129088       23.4903312696
  H         0.4882533216       14.2046594839       21.8046217445
  H        -0.0246141073       14.5879149893       23.3125307780
  C         1.4858501485       11.6341595884       22.8203307783
  C         0.9097997257       12.2906723882       24.7206686141
  C         2.6917712324       13.8378492895       23.6829497254
  C         1.3432475454       10.5385751569       23.5926260341
  C         1.8333708230       11.3046659962       21.5078039473
  C         0.9956379666       10.9683424407       24.8633518852
  C         0.5212845916       13.0091852392       25.8222274000
  H         3.0424896521       14.2566524947       22.6971090541
  H         2.3734882038       14.7762153047       24.1794877322
  C         3.8974236550       13.1770040808       24.4374749762
  S         1.5221283710        9.0506490547       22.7807575738
  C         1.8639608775        9.9573217749       21.3363149568
  H         2.2064408699       12.0510176094       20.8431302884
  C         0.6666772865       10.3967805505       26.0677515408
  H         0.6006658551       14.0753282472       25.8171866537
  C         0.1432579814       12.4070966851       27.0080077532
  H         4.1529791219       12.2966931440       23.9219909406
  H         3.6693419937       12.8993306342       25.4777628240
  C         5.0784485899       14.1446695710       24.5631314015
  C         2.1896566096        9.2015735708       20.0265906277
  C         0.2722382240       11.1068918481       27.1899984242
  H         0.7544748485        9.3530351949       26.1954193858
  C        -0.3263062230       12.8160919346       28.2006734798
  H         5.8169452803       13.7143252204       25.1983389026
  H         4.7587897610       15.0744640960       25.0865386919
  C         5.7351150361       14.4626054134       23.1826058098
  C         2.2262959968        7.8080031055       19.8241752926
  C         2.6463393026        9.9090769523       18.7958727279
  C        -0.2592347179       10.3698186952       28.4397094183
  C        -0.5296907319       11.7747359428       29.0653953742
  S        -0.5058489082       14.3087929729       28.9217011227
  H         6.5167328181       15.1246841501       23.3352033327
  H         4.9811663079       14.9942033184       22.5081542860
  C         6.5124850482       13.2639219205       22.6530421366
  N         1.8598678939        6.8597457530       20.8052266304
  C         2.3950788599        7.1764596624       18.5987817694
  C         2.9448813823        9.2603702958       17.5970648020
  H         2.8071681342       11.0243478223       18.7888082770
  C         0.7033811525        9.3299699231       29.1398747928
  C        -1.5010997136        9.5643979995       28.2525350252
  C        -1.0136740842       12.1230272842       30.3257331855
  C        -1.1049094374       13.4944049938       30.3870869805
  H         7.1866471107       12.8878751181       23.4408872501
  H         5.8403465666       12.3944539476       22.4148747519
  C         7.2444401202       13.5118013489       21.3043957175
  S         1.9570926431        5.3418230723       20.1964566812
  N         2.2595482476        5.7235046728       18.6143968450
  C         2.7747136646        7.8482488466       17.4209267235
  H         3.3071825059        9.8125443685       16.7754890704
  H         0.9023941223        8.5100305512       28.4241855421
  H         0.1546772312        8.8751536546       29.9803735320
  C         1.9866478206        9.8688957365       29.6897307102
  H        -1.3228387930        8.6231582018       27.7734386531
  H        -1.9293102269        9.4427860262       29.2368290651
  C        -2.4584732697       10.2591166386       27.3794971414
  H        -1.2781451078       11.3568005797       31.0686772476
  C        -1.5393036071       14.2444355421       31.5862352780
  H         8.2420090955       13.0482509996       21.3323641596
  H         7.4681179653       14.5864019340       21.1835346290
  C         6.4283456745       13.1061299243       20.0831101146
  C         2.9827410511        7.0828842973       16.2351202231
  H         2.7396745856        9.4790187134       29.1245929754
  H         1.9920243956       10.9368137346       29.5091444149
  C         2.2965924524        9.4192183420       31.0946540444
  H        -2.0636587608       10.4904714647       26.3803939015
  H        -2.8189781179       11.2023969920       27.7284347438
  C        -3.7980794321        9.4456610359       27.1527423675
  C        -1.6353379978       15.6699868821       31.7334557208
  C        -1.7965487139       13.4501710136       32.8522967843
  H         6.8820738044       13.5761798259       19.1548003450
  H         6.4848222432       12.0353250042       20.0664597425
  C         4.9896197494       13.5618499631       20.1047464355
  H         2.7997504467        5.9613633278       16.2273535665
  C         3.2989679086        7.5072087546       14.9512260282
  H         2.2708289790        8.3550345777       31.2298311306
  H         1.5374258840        9.8208440323       31.7049220378
  C         3.6054161045        9.8889118350       31.7308893466
  H        -3.6783967607        8.7467752224       26.3934817236
  H        -4.1853795960        9.0310582218       28.0491332346
  C        -4.9234463027       10.4026187183       26.6243245757
  N        -1.5057434498       16.6233766338       30.6714033578
  C        -1.9420547157       16.2660648433       32.9031828550
  C        -2.0521371159       14.0965703592       34.0627987865
  H        -1.6070090159       12.3823995487       32.8845573215
  H         4.4078515222       12.8449475350       20.6743396986
  H         4.9343131780       14.5117677815       20.5326097977
  H         4.6829804833       13.7250857021       19.0953906933
  S         3.4763026862        9.1333216281       14.4129557015
  C         3.4183219240        6.5403141193       13.8388231611
  H         4.2210336791       10.5937216659       31.1244744275
  H         3.1779541416       10.3107217495       32.6619173112
  C         4.5494398360        8.6971347305       32.1161043846
  H        -4.5790061179       11.1395015277       25.9687594529
  H        -5.3223954227       10.9615802532       27.4418430685
  C        -6.0898195832        9.7319390707       25.8729159648
  S        -1.5202741774       18.1329906992       31.2578906803
  N        -2.0439354266       17.6970433092       32.7536905140
  C        -2.2275614354       15.6125800741       34.0881854736
  H        -2.0436701894       13.5060734196       34.9678994166
  C         3.7545454191        8.4840418816       12.8445356830
  N         3.8247597027        7.1548951326       12.7148944912
  O         3.2943113614        5.2654739739       13.9935159855
  H         3.9663970932        7.8493527228       32.4279038169
  H         5.0830469673        9.0824459564       32.9476266625
  C         5.5520817053        8.1249137765       31.0632522042
  H        -5.6360665051        9.1947412740       25.0466077879
  H        -6.6833221428        8.9894974036       26.3651696978
  C        -6.9454065340       10.7953967487       25.1819423186
  C        -2.3748574743       16.3661261469       35.2499764822
  S         4.2731393324        9.3841569075       11.4027887341
  C         3.8775166088        6.4633630416       11.4124097263
  H         5.0999216204        7.5518817661       30.2419962990
  H         6.1292786672        8.9507741329       30.6471504527
  C         6.4943966464        7.0912835548       31.6231157702
  H        -6.4820844550       11.1941500026       24.3209600936
  H        -7.1333643755       11.7309890177       25.7787611978
  C        -8.2684806221       10.2122415732       24.6551310026
  H        -2.0601367004       17.4082054234       35.1206149574
  C        -2.8230226458       15.9514588858       36.5070063831
  H         4.6714603903        6.8883644051       10.7973339369
  H         4.2166638543        5.4156458073       11.5370635546
  C         2.4849207214        6.4351379689       10.7791694770
  H         6.8115418488        7.4288036385       32.6218260293
  H         7.2691642496        6.9029686607       30.8782739889
  C         5.6949856401        5.7655034534       31.8941642482
  H        -8.6767127759       10.9002422875       23.8873649349
  H        -8.2116709737        9.2773764043       24.0585333213
  C        -9.3341407006       10.1192170148       25.7059084012
  S        -3.2608410959       14.3884875153       37.0232387703
  C        -3.0290574283       17.0090776648       37.5477149664
  H         2.2423880847        5.5305067460       10.1979075410
  H         1.6993388031        6.6651271952       11.4994137129
  H         2.4011128874        7.1685964560        9.9609802110
  H         5.4096550578        5.8321702727       32.9358572761
  H         6.3551561258        4.9693236905       31.6009055558
  H         4.7103684016        5.6417487610       31.4013813867
  H       -10.3915133160       10.2686559632       25.3651989344
  H        -9.1173529553       10.8139226086       26.5820472486
  H        -9.2669237607        9.1322191161       26.2519549900
  C        -3.7712023233       15.1378331231       38.5288145737
  N        -3.6428885388       16.4478979845       38.6172994884
  O        -2.8349949205       18.1960763639       37.3643903845
  S        -4.7513925694       14.3352159201       39.7879632735
  C        -4.0527363781       17.1939794606       39.7713168381
  H        -4.0395386206       18.2142039554       39.4481334431
  H        -5.0456255022       16.9081442826       40.1508478178
  C        -3.0005045789       16.9166519440       40.8534310263
  H        -2.5113306050       17.8377281280       41.1741654055
  H        -3.4562929708       16.5004926357       41.7834946334
  H        -2.0751146112       16.2419650092       40.6491767754
