352
 i =    83200, time =    83200.000, E =        25.1639892619
  H        10.5991010064        7.5384680740       31.6914895109
  C        11.4478998991        6.8876420300       31.8664419674
  H        12.3489168405        7.5457430838       32.0049974283
  C        11.6672543718        5.8546469524       30.6779719835
  C        11.2629567265        6.1084504774       33.2592795162
  C        10.3406048174        5.3269814255       29.9766364756
  H        12.2818380949        6.2130502746       29.8318528114
  H        12.2094804786        5.0888932768       31.1716237315
  H        12.1820406399        6.1297872851       33.8405809025
  H        10.4649362591        6.4527014963       33.8788350917
  H        11.0638276031        5.0445056060       33.0843367985
  C         9.9422529728        6.3882627109       28.9550152033
  H         9.5705057940        5.1013347342       30.7155074847
  H        10.5559992744        4.3621861444       29.5833199379
  C        10.5458425662        6.0212878108       27.5869612602
  H         8.8573808849        6.4684017729       28.9165591680
  H        10.4346818404        7.3042887294       29.1588524406
  C         9.6066452086        5.1146395853       26.7682919246
  H        11.4642526185        5.4852568614       27.7760290386
  H        10.9182644178        6.8726406992       27.0712989420
  C         8.4184396518        5.8928650010       26.2718762652
  H        10.0865475727        4.8700876793       25.8493716481
  H         9.2882087146        4.2264684328       27.3571626017
  C         7.3090072183        5.1285090312       25.5389231719
  H         8.0285589883        6.4870915114       27.1050765761
  H         8.7848505176        6.6504567795       25.6127907321
  C         6.9496162603        3.7922143816       26.2195649052
  C         7.8096108651        4.4453146463       24.2691301640
  C         6.1022888946        6.0477102080       25.2165962480
  C         7.1801980944        2.6901386579       25.3687945781
  C         6.4674316304        3.4959222915       27.5265083139
  C         7.6970415179        3.0695044104       24.1479574093
  C         8.3172044913        5.1134592667       23.1430619373
  H         5.4902656693        5.5886965403       24.3922381789
  H         6.3741890368        6.9437651808       24.7522413617
  C         5.2324568407        6.3786684600       26.4096991275
  S         6.7073888793        1.2207257721       26.1308344034
  C         6.2442816052        2.1326071103       27.6132067901
  H         6.4130690328        4.2453478763       28.2762049854
  C         8.0545349268        2.3506226651       22.9880313014
  H         8.2749348446        6.2216636490       23.1890429144
  C         8.6488595196        4.4133846976       21.9998284747
  H         5.4481778190        5.8920494147       27.3641221383
  H         5.2991082021        7.4316498636       26.5645891611
  C         3.8182439336        5.9296947578       26.0281772581
  C         5.8421589961        1.4665505398       28.9142608174
  C         8.4527918596        3.0457187634       21.7935638885
  H         7.8761065595        1.3347444173       22.9537072968
  C         9.0991256905        4.8339816994       20.7700828323
  H         3.8234295756        4.8849064297       25.9243265643
  H         3.6953653567        6.4209794881       25.0901643136
  C         2.6351944120        6.3948786191       26.8731427408
  C         5.9213453930        0.0649610824       29.1655634462
  C         5.4183694515        2.2608970145       30.0785797548
  C         8.8675045549        2.3746338065       20.5254736913
  C         9.1218187134        3.7677637482       19.8960262971
  S         9.6163800709        6.2710198689       20.0709535979
  H         2.0349368599        6.9758410381       26.3217973299
  H         2.9540462308        7.0490494301       27.7297676928
  C         1.8220911596        5.1273364119       27.3375976406
  N         6.2445878086       -0.9039221745       28.2016507939
  C         5.6723960666       -0.5511359374       30.3850031665
  C         5.2189259637        1.6759614638       31.3022142020
  H         5.2439599974        3.3397803883       30.0128721359
  C         7.6744411566        1.6794822458       19.8396782812
  C        10.1747942003        1.6025576745       20.7379972159
  C         9.4397075991        4.1488938636       18.5908258060
  C         9.6654678141        5.5032603085       18.5411788839
  H         1.0964765057        4.8690395702       26.6103537968
  H         2.5419293100        4.3934790513       27.5411925989
  C         0.9346718136        5.2488535988       28.5461487142
  S         6.2856785663       -2.3639998871       28.9580839266
  N         5.7603401545       -1.9582756194       30.4344326822
  C         5.3545385010        0.2322807085       31.5528373482
  H         4.8228935140        2.3312720090       32.1106690437
  H         7.2255352828        1.0604261325       20.5025656263
  H         8.0315748876        1.1770075218       18.9676991880
  C         6.5912119561        2.5838998533       19.3488971331
  H        10.3952617265        0.9909109137       19.8620640788
  H        10.0081413117        0.9738509616       21.6195533491
  C        11.3792892117        2.5153178426       20.9975665210
  H         9.4912339246        3.3621351512       17.8665374326
  C         9.9485925547        6.3017265424       17.3152220580
  H         0.5854596647        4.2432524121       28.6390419119
  H         0.0359327981        5.8806922134       28.3367495561
  C         1.6559962399        5.6642020952       29.8459814802
  C         5.1602345279       -0.4255164093       32.8260969023
  H         6.8950211844        2.9570714487       18.3328218784
  H         6.5391079420        3.4475465166       19.9928427893
  C         5.1032379867        2.1423102256       19.4564159398
  H        11.2278797590        3.1919248170       21.8772880966
  H        11.5714453915        3.1152072786       20.1967366311
  C        12.6926395230        1.7085394695       21.1863744686
  C        10.1661947704        7.7051192452       17.2217734814
  C        10.0522408911        5.6353354796       15.9634287092
  H         2.0912828668        6.7163486552       29.8127640850
  H         0.9192642640        5.6422280872       30.6275560271
  C         2.8271752083        4.7133647149       30.1831126597
  H         5.1188934999       -1.4751036807       32.6913442421
  C         4.8341967651        0.0275874609       34.0896479596
  H         4.4397364708        3.0872562198       19.3684860226
  H         4.9124354406        1.7215747588       20.4426912206
  C         4.7205399846        1.2467658244       18.2367569352
  H        12.5045524158        0.7841593576       21.7884024190
  H        12.9346026425        1.2882441730       20.2457608031
  C        13.9125848896        2.5569163632       21.7398623177
  N         9.9538379208        8.6267328203       18.3277499140
  C        10.6081054124        8.3991936302       16.0971586825
  C        10.5875672211        6.3069645788       14.8814021642
  H        10.1266707065        4.5929206704       15.9894130075
  H         3.7622210005        5.0076389335       29.7458017588
  H         2.8216611310        4.6467906014       31.2895056563
  H         2.5535230368        3.7463514811       29.8792354992
  S         4.5789108202        1.6071573320       34.6118899259
  C         4.9318801201       -1.0736911253       35.1168360449
  H         4.9275713086        1.6110611353       17.2419498980
  H         5.3671177234        0.3326843649       18.3488348607
  C         3.2527515489        0.8433248219       18.1811568215
  H        13.5578032536        3.3626704519       22.3202514769
  H        14.3907641056        2.9143064788       20.8826330965
  C        14.8645292759        1.7575384425       22.6246012387
  S        10.2396017265       10.1889915022       17.7974684661
  N        10.6645795714        9.8203365814       16.2731733936
  C        11.0137786184        7.7416838128       14.9077188193
  H        10.6857088294        5.7940542199       13.9286788308
  C         4.5221429817        0.8499438580       36.1899598354
  N         4.7801557279       -0.4730029774       36.2797482124
  O         5.0877945355       -2.3174890953       34.9354127071
  H         3.1307465433        0.5310076956       17.1988369949
  H         2.6168568085        1.6947250294       18.2688817883
  C         2.8828237753       -0.2460714332       19.1388460424
  H        14.2957113396        1.2640143683       23.4227945294
  H        15.3336069436        0.9261792982       22.1082929959
  C        15.9600242116        2.6705909405       23.1021479304
  C        11.3326442818        8.5338356609       13.7705705725
  S         3.9854653928        1.6496018943       37.6248730717
  C         4.8026750486       -1.1695494320       37.5723694945
  H         3.8191801923       -0.4323910989       19.7536979636
  H         2.1193834089        0.0170674664       19.8957813598
  C         2.1992209075       -1.4850750308       18.5045400862
  H        15.5198881507        3.3096967126       23.8846851436
  H        16.3055294360        3.3979787422       22.3683656891
  C        17.2225608743        2.0539452750       23.8118333996
  H        11.2860552648        9.5761209443       13.9804719653
  C        11.7915121000        8.2051063646       12.4724235548
  H         4.3299683559       -0.6041492953       38.4086884237
  H         4.2799557187       -2.1090029381       37.4271124645
  C         6.2551602937       -1.5465992182       37.9184747982
  H         1.2165571128       -1.1273937452       18.0951417004
  H         1.9451662175       -2.2233958215       19.2474812168
  C         3.0437246021       -2.2986233354       17.5646906074
  H        17.4674720278        2.6876095822       24.7064882666
  H        16.9671284546        1.0847728287       24.1535358275
  C        18.3786775456        1.9998746707       22.7999103684
  S        12.0426129792        6.5758070633       11.9247146116
  C        11.9334299919        9.3318773639       11.5376518707
  H         6.8564010445       -1.1012103771       37.1254374703
  H         6.3361279158       -1.1542389619       38.8578509780
  H         6.2158685492       -2.6413654817       38.1261934293
  H         3.3067082685       -1.6963564564       16.6818363938
  H         2.4531425463       -3.1729916827       17.3667385085
  H         3.9198337552       -2.6931632926       17.9711017816
  H        18.5515704635        2.9428842993       22.2702803864
  H        18.1426606380        1.2616316683       22.0373675613
  H        19.3010257819        1.6523241735       23.1879565818
  C        12.4412563243        7.3532128750       10.4666482636
  N        12.3146715633        8.7106663671       10.4062321993
  O        11.5577541026       10.4633211780       11.7329491733
  S        13.0179861539        6.4957859661        9.0063337920
  C        12.4309936786        9.5639478019        9.1894985697
  H        12.7180523956       10.5959678632        9.4049536713
  H        13.2939415274        9.2916813310        8.6237047530
  C        11.1613503749        9.5042751803        8.2858819730
  H        10.2152253775        9.8213679070        8.8542813467
  H        11.3532231333       10.2644102461        7.5032641736
  H        11.0203325486        8.5563655014        7.8059564528
  H        -2.6360413412       14.9174382539       15.9605839760
  C        -2.8520158852       13.8905818861       16.2348215860
  H        -3.8160242278       13.9722356224       16.7792113135
  C        -1.8227555193       13.3332712809       17.2687886516
  C        -2.9126218104       13.0688936866       14.9059325552
  C        -2.2604750821       13.5871252946       18.6962451668
  H        -1.7434349155       12.2744028702       17.0397531535
  H        -0.8703157257       13.7918976400       17.0498316729
  H        -3.5589299893       12.2374470462       15.0587404819
  H        -3.3305148381       13.6654578798       14.1520900947
  H        -1.9760965506       12.5924851943       14.5460061057
  C        -1.3342170784       12.9731548384       19.6898707702
  H        -3.2275758277       13.0924324240       18.8512371973
  H        -2.3965756929       14.6297126695       18.8709761168
  C        -1.7589046512       13.1614255922       21.1652682007
  H        -1.2735154878       11.9280112645       19.4705405552
  H        -0.2748695309       13.1690160429       19.6118428343
  C        -0.8057543677       12.6001606396       22.2336411797
  H        -2.6643710011       12.6494149126       21.3642853707
  H        -2.1269565890       14.1226944553       21.3693770573
  C         0.3242159187       13.5779597142       22.7618182536
  H        -1.3754587837       12.2862988955       23.1214177991
  H        -0.4113743202       11.6905120822       21.7394280652
  C         1.4800389928       12.9065471770       23.5321169013
  H         0.7066423683       14.1337937814       21.8593541985
  H        -0.2641280274       14.2895889335       23.4477004470
  C         1.8693356770       11.5359224768       22.8649023187
  C         0.9656459596       12.1568845238       24.7700645351
  C         2.6229999659       13.8926845542       23.7709537334
  C         1.5340971474       10.4546151377       23.6328375009
  C         2.3512577718       11.1909999175       21.6281430752
  C         1.0016048669       10.7842251409       24.8235484374
  C         0.3079124889       12.7444452768       25.8086692658
  H         2.7123185881       14.4324933031       22.8236756818
  H         2.1837948166       14.5947737203       24.3960649551
  C         3.9640753803       13.1315010057       24.2362322428
  S         1.8930349408        8.9117037586       22.8375914760
  C         2.3994110657        9.8402141274       21.4104383234
  H         2.7869467951       11.8975982130       20.9144869967
  C         0.5081998584       10.1950400954       25.9239517855
  H         0.1799466095       13.7648365272       25.6928804383
  C        -0.1470586138       12.1118891694       26.9738257598
  H         4.2150711310       12.4161255596       23.5557104682
  H         3.9468175485       12.6367714051       25.2354288900
  C         5.1887791973       14.0808493151       24.2596837331
  C         2.8106688085        9.2091864219       20.1771758855
  C        -0.0641758086       10.7830598890       27.0832207622
  H         0.5478777481        9.0998766156       25.9480854632
  C        -0.5822507552       12.4805956615       28.2165645375
  H         5.9949127947       13.5197389822       24.6800662974
  H         5.0315229781       15.0461742177       24.8293684237
  C         5.5749608917       14.4075751159       22.7551748731
  C         2.8688387543        7.8258754111       19.8784272493
  C         3.1004248166       10.1499245380       19.0466477232
  C        -0.3726736950       10.0711714400       28.3656217984
  C        -0.7591151090       11.3618555345       29.0410647856
  S        -0.8604624505       13.9014767361       29.0778787682
  H         6.2170550255       15.3338710615       22.8082879810
  H         4.7461024213       14.7419584888       22.1215760594
  C         6.3874543579       13.2709650332       22.1663654616
  N         2.6811117311        6.7923609384       20.8301208488
  C         3.1616330066        7.3423608346       18.5824035541
  C         3.4208245217        9.6853125027       17.7866662432
  H         3.1858097987       11.1842403185       19.1923242099
  C         0.8899813125        9.3904090959       28.8909262320
  C        -1.5319580453        9.0842426472       28.2698789663
  C        -0.9727336051       11.7265910063       30.3844414579
  C        -1.0555401175       13.0524326118       30.6032803115
  H         6.9748501832       12.8700025516       22.9562455001
  H         5.7023665112       12.5009774337       21.7902459943
  C         7.3707478518       13.6809832988       21.1300435930
  S         2.7127185534        5.4220495248       19.9936955152
  N         3.2823336180        5.9660781337       18.5764236162
  C         3.4481112056        8.1827325172       17.4981010824
  H         3.8276348121       10.3400648015       16.9487931682
  H         1.3314772252        8.7287951800       28.2156787415
  H         0.5580690213        8.9467559133       29.7995769362
  C         1.9648674543       10.3809507673       29.3801896020
  H        -1.1428066921        8.1280575241       27.8453654579
  H        -1.7434714128        8.9063792043       29.3437325306
  C        -2.7530485856        9.6594013016       27.5493027117
  H        -1.0610798571       10.9050833855       31.0385233946
  C        -1.3499427334       13.8439275411       31.8718557622
  H         8.1585530886       12.9581345984       21.2397831193
  H         7.6992164694       14.6340465539       21.4593612936
  C         6.7548679519       13.6475939935       19.7249164104
  C         3.7512788160        7.5788074399       16.2190779000
  H         2.3625530361       10.9082232967       28.5258449092
  H         1.5569774439       11.1234812974       29.9941482144
  C         3.0719022579        9.5532020141       30.0569294473
  H        -2.5070695915        9.9592154923       26.5330280148
  H        -3.0275905298       10.5864018630       28.1620825016
  C        -3.9719614763        8.6820228921       27.5284570747
  C        -1.5642512189       15.3050114387       31.9687682271
  C        -1.5484864024       13.0579808942       33.1236342074
  H         6.0841460366       12.8114978609       19.6396164931
  H         6.1481445124       14.5802481628       19.5759695992
  C         7.8128927605       13.5986982152       18.5692180788
  H         3.8006582107        6.4356997244       16.1984576071
  C         3.9233396253        8.0932660912       14.9300976732
  H         3.4461137479        8.8673925531       29.3418482573
  H         2.5800789848        9.0722878831       30.8520535036
  C         4.1651610116       10.4069371223       30.6752708047
  H        -3.8865218175        7.9413659242       26.7022225385
  H        -3.9242573079        8.0957501586       28.4379608822
  C        -5.2195918873        9.4957424470       27.4257332001
  N        -1.3373743772       16.2847877828       30.9334306118
  C        -1.8123425076       15.9194477795       33.2282693706
  C        -1.7965245304       13.6483014118       34.3279965111
  H        -1.5012763999       11.9931926597       33.0613172644
  H         8.0059842464       14.5319757028       18.0618324595
  H         8.7533759960       13.2769426466       19.0150226316
  H         7.4571620315       13.0415450512       17.7587456133
  S         4.1444972364        9.7409949040       14.4131714014
  C         3.9242124292        7.1407358427       13.8104853467
  H         4.7020532006       10.9417589661       29.8443341772
  H         3.7824100668       11.2855887505       31.2318140699
  C         5.1128315034        9.5606906197       31.5808044568
  H        -5.1110038969       10.3833662227       27.9831911220
  H        -6.0366814356        8.9264813277       27.8552214625
  C        -5.4791913434        9.9459769129       25.9921443697
  S        -1.3759211718       17.7760828181       31.5261076441
  N        -1.7465101155       17.3249601120       33.0571405591
  C        -1.8924702661       15.1803186056       34.4466734801
  H        -1.8141564662       12.9628167082       35.2048606407
  C         4.3302645187        9.0676130201       12.8162044299
  N         4.4032036905        7.7203868187       12.7501692040
  O         3.8207184253        5.8956994686       13.9243609336
  H         4.7051734645        9.0627090483       32.4216812103
  H         5.8747337853       10.2196913021       32.0596828975
  C         6.0483124021        8.6999679643       30.6776985239
  H        -4.7306456812       10.6734824697       25.6115019290
  H        -5.5364687387        9.0461658789       25.3270716679
  C        -6.8618901841       10.5364743567       25.7433689102
  C        -2.0719002609       15.9711410774       35.6193232132
  S         5.0389142169        9.8691543252       11.3911250429
  C         4.4281899210        6.9009117773       11.5076286610
  H         6.2010945511        9.1274230297       29.6955221862
  H         7.0876446681        8.7194395736       31.0212450876
  C         5.6114152795        7.1788217155       30.4986770898
  H        -6.8450658951       10.9373721472       24.7238314434
  H        -6.9844933502       11.4587972257       26.3798679874
  C        -8.0633191341        9.6372418517       25.8483284229
  H        -1.6506018559       16.9320960853       35.5654656915
  C        -2.6918762209       15.7606578896       36.7923204193
  H         4.9878527953        7.2674731512       10.6629614065
  H         4.9869131636        5.9551563634       11.8311097702
  C         2.9972163870        6.5367785432       10.9854126960
  H         5.9061422233        6.7504239143       29.5402337521
  H         4.5751022278        7.2339933798       30.5665221521
  C         6.1497315915        6.3399364625       31.6784689485
  H        -8.4441619658        9.4643474249       24.8119327133
  H        -7.7546969667        8.6361902870       26.2198593020
  C        -9.1263455027       10.2003245789       26.8388339601
  S        -3.4341097860       14.3017050459       37.2907993921
  C        -2.6633892276       16.8781212138       37.7556164135
  H         2.4023923352        5.9338883456       11.6191425352
  H         2.5236727546        7.4831220031       10.9222420525
  H         3.0104728519        6.1775080180        9.9412424710
  H         6.3299801468        7.0035173702       32.5695103103
  H         7.1026970514        5.8022635840       31.3838446492
  H         5.5285554605        5.4923840015       31.8448870103
  H        -9.0715873914        9.6430806838       27.7073181875
  H       -10.0952433523       10.0347772654       26.4404999918
  H        -9.1456909756       11.2603474484       26.9566878675
  C        -3.6034821506       15.2135516597       38.8259403795
  N        -3.2260277439       16.5132949085       38.8794831445
  O        -2.3206462751       18.0381220925       37.4859581007
  S        -4.4895588412       14.6632428564       40.2043558405
  C        -3.3454063978       17.4127228874       39.9873984104
  H        -3.4340001406       18.4278100308       39.5884423775
  H        -4.3574550431       17.3886205935       40.4013311945
  C        -2.3129963333       17.1672219384       41.1046113315
  H        -1.4570950565       16.6218774708       40.6849024323
  H        -2.0990379408       18.1367610849       41.5885984312
  H        -2.7864834345       16.4871074992       41.7697107854
