352
 i =    28100, time =    28100.000, E =        24.4355844596
  H        12.2896756819        6.4390390481       32.8635482523
  C        11.7084224228        5.4958219163       32.6589604353
  H        12.4621953420        4.7884982906       32.3826401923
  C        10.6634156621        5.7366164086       31.5062282677
  C        10.9578764404        5.0887909044       33.9052650314
  C        11.2842619788        5.9317568425       30.0865026008
  H        10.0457728857        4.8645427250       31.3402798726
  H         9.9845852582        6.5206268431       31.7738180635
  H        10.7112524068        4.0779531477       33.7400342436
  H        11.5787624803        5.2649977937       34.8235142351
  H        10.0562716658        5.6430046865       33.9026831775
  C        10.1533100542        5.9158287646       29.1193874479
  H        11.8526811431        4.9942440426       29.8275294922
  H        11.8699667000        6.8002327308       29.9663529483
  C        10.6302006768        5.8047150794       27.6942525084
  H         9.4698820963        5.1126015486       29.2690198893
  H         9.5639538649        6.7864748617       29.2229151269
  C         9.6602141484        5.1825558354       26.6246118552
  H        11.5276116342        5.2507108118       27.6951842116
  H        10.9259751428        6.8024362391       27.3147843816
  C         8.4661976192        6.0742721866       26.1723565823
  H        10.2502843946        4.7781552950       25.8070944026
  H         9.2854442903        4.2820201940       27.0945819470
  C         7.3568867356        5.4226852345       25.2636600091
  H         7.9663799466        6.4599093833       27.0541193192
  H         8.8528172387        6.9589366412       25.7216152151
  C         6.9236037792        4.1230399695       25.9217668321
  C         7.8920409306        4.7825947131       24.0367420886
  C         6.1102975823        6.3264363422       25.2097024848
  C         7.2288652599        3.0369998899       25.1591368910
  C         6.2936148655        3.6883670565       27.1246960270
  C         7.7815957634        3.4115781864       23.9868300129
  C         8.3415078332        5.4163763849       22.8745422448
  H         6.3757146766        7.2508300539       24.7127655612
  H         5.8402943517        6.5351246990       26.2297939921
  C         4.9086506557        5.5636716109       24.6541686012
  S         6.8545491409        1.5203465675       25.8467879088
  C         6.2526700761        2.3192232641       27.2929445754
  H         5.8440128399        4.3778763336       27.8183083634
  C         8.1473918098        2.7984804151       22.8158174104
  H         8.2784392615        6.4951901055       22.9739422316
  C         8.5277880775        4.8293252602       21.6767197700
  H         5.1031897750        5.3296242841       23.6683758151
  H         4.6585131016        4.5480412775       25.0659311039
  C         3.6097903288        6.4108228578       24.5227092522
  C         5.7422278614        1.5884213029       28.4951713019
  C         8.4573971296        3.4738228679       21.6390547033
  H         8.0839426649        1.7367581255       22.7301141644
  C         8.8386969663        5.1235674262       20.3708062162
  H         3.0040937547        5.9598731392       23.7920360607
  H         4.0622444011        7.3029172691       24.0773133107
  C         2.7618077322        6.6008878977       25.8666957775
  C         5.8218931496        0.1985167663       28.7073898518
  C         5.4671658453        2.4467529818       29.7326007873
  C         8.7139249588        2.7199051556       20.4302787922
  C         8.9158502855        4.0042180853       19.6224792799
  S         9.2225376269        6.5916661729       19.6010385060
  H         1.8997465768        7.2639551728       25.5684397278
  H         3.2450561253        7.1216515867       26.7113686185
  C         2.0607673563        5.3096095107       26.4562722272
  N         6.2542959528       -0.7738724931       27.7687619198
  C         5.6268783291       -0.3945781296       29.9781960019
  C         5.2062069463        1.8091627892       30.9368770252
  H         5.3839717183        3.5625634779       29.7484502254
  C         7.4864338644        1.9677607190       19.8436411523
  C         9.9837217931        1.8166258034       20.4374115720
  C         9.2733147664        4.3559569347       18.2596837905
  C         9.5164515586        5.6878177999       18.1821112797
  H         1.3030223498        4.8524333766       25.8210773426
  H         2.8599852871        4.4933470283       26.7106811205
  C         1.2913576265        5.4300439527       27.7762924544
  S         6.1118234221       -2.2747019821       28.4161520921
  N         5.7111291443       -1.7907428442       29.9169759521
  C         5.3468588846        0.3602140755       31.1365907230
  H         4.9462893528        2.4836222509       31.7796431728
  H         7.2379000887        1.2851722804       20.6847875663
  H         7.7088870436        1.2782076018       19.0796283706
  C         6.2568593626        2.7773993481       19.4844149565
  H        10.0700190456        1.4813368627       19.3727268065
  H         9.9506979870        1.0088545209       21.0548620586
  C        11.2484212509        2.5413869406       20.7349507461
  H         9.2864626285        3.6530047904       17.4415148570
  C         9.9597242221        6.3599885962       16.9572845318
  H         0.7747490868        4.5711696008       28.1336068813
  H         0.6368393920        6.2888060393       27.6959855863
  C         2.2770252030        5.6978078158       28.9291420351
  C         5.0198011596       -0.3402536365       32.3718974273
  H         6.3948476380        3.6219161078       18.8647781059
  H         5.7547384317        3.1355639363       20.4051385712
  C         5.1862416780        2.0229402991       18.7244364826
  H        11.1799979532        2.9018136586       21.7763807727
  H        11.4216004520        3.3694680563       20.0509140946
  C        12.3943387081        1.5954716208       20.6090295317
  C        10.1194356167        7.7168417388       16.7324167297
  C        10.2283564086        5.5393212193       15.7837824590
  H         2.9552273143        4.8627514088       29.0874447078
  H         2.8755841677        6.5231983366       28.7069591206
  C         1.5371373582        5.8493891994       30.2320385298
  H         5.2294391337       -1.3552325637       32.2639010304
  C         4.6630413133        0.0234308019       33.6331685417
  H         4.8828542233        1.1333564456       19.3069007147
  H         5.6725917211        1.4601724385       17.8778844907
  C         4.0019402944        2.8184945656       18.3398071784
  H        12.2267547033        0.8222590840       21.3828397866
  H        12.4062879034        1.0207699287       19.5924950531
  C        13.7630448608        2.2926786922       20.8201388129
  N         9.8643780910        8.6389964260       17.7741340087
  C        10.4819003494        8.2783690607       15.5553757659
  C        10.5482050880        6.0805779567       14.5519489137
  H        10.2366592147        4.4341122298       15.8187824618
  H         2.2324297826        6.2411113159       30.9125212574
  H         0.6975551835        6.5859456269       30.2038354114
  H         1.0580626797        4.8303499570       30.4315489513
  S         4.3521630708        1.6207533961       34.2170327665
  C         4.7316960750       -1.0397191334       34.6152964259
  H         3.9707686031        3.7280620041       18.9954690390
  H         4.1899948248        3.2729357147       17.3762350400
  C         2.6774699297        1.9693133562       18.2870035476
  H        13.8844080271        3.2366896440       20.3313075766
  H        14.5516575397        1.5181055457       20.5441906972
  C        14.0035244736        2.8877565001       22.2533993104
  S        10.1795973861       10.1181414650       17.2026203293
  N        10.6430578010        9.6927305817       15.6895485632
  C        10.7644487149        7.5586236864       14.3830482359
  H        10.7271341829        5.3510073260       13.7577097208
  C         4.3261145333        0.8737485023       35.8446378874
  N         4.4286000565       -0.4940911926       35.8124151732
  O         5.1271947264       -2.2007123232       34.4554367187
  H         1.8985360283        2.6232828153       18.0914157075
  H         2.5138088002        1.5060135820       19.2292566316
  C         2.7477752340        0.8424442091       17.2595182758
  H        14.4318336594        3.8955841893       22.2639887766
  H        13.0673816366        3.0042434142       22.8308745238
  C        14.8444166581        1.8633581963       23.0797331669
  C        11.1232265241        8.3808882575       13.2572489956
  S         3.8065531591        1.7481898856       37.3138822562
  C         4.4759055515       -1.3082960238       36.9720653958
  H         1.7579664429        0.9545500834       16.7659015509
  H         3.4676909205        1.0768554932       16.5095189550
  C         2.6360829102       -0.5505565923       17.8243086508
  H        14.6684668168        0.8480601278       22.7354614650
  H        14.4876566342        1.8981014115       24.1141701592
  C        16.3828599952        2.1457874484       23.1567929840
  H        10.9138164044        9.4431613558       13.2997678127
  C        11.6252474621        8.0162394690       11.9918446981
  H         3.7667940770       -0.9440155250       37.6700646194
  H         4.1027819860       -2.2868124584       36.7133433764
  C         5.9382893364       -1.4276896562       37.5532179730
  H         3.3997169918       -0.8936589352       18.5659223151
  H         2.8761990767       -1.1263600829       16.9347895630
  C         1.2455420792       -0.9084980207       18.1579677051
  H        16.6218713841        3.1114513006       23.6217756445
  H        16.6398019627        1.4205715622       23.9200005048
  C        17.2023049169        1.9741439812       21.8622177313
  S        12.2062218347        6.4827809523       11.5509389635
  C        11.6682947795        9.0803663929       10.9591728969
  H         6.0060491763       -2.0285094045       38.3868832021
  H         6.5640506411       -1.8195316710       36.7332038782
  H         6.2293141540       -0.4322976083       37.8375881633
  H         1.1583628217       -1.6711671790       18.8722722071
  H         0.6251903990       -1.1376868146       17.2301719325
  H         0.7070237833       -0.0325818024       18.5350091769
  H        17.1398207858        0.9721815847       21.4254544335
  H        18.2782868459        2.1101386977       22.1314414821
  H        16.8398276297        2.7255350775       21.2122573460
  C        12.4590329802        7.1245382393        9.9731709480
  N        12.1543933331        8.4868699930        9.8682232846
  O        11.2646598955       10.2370833330       11.0512114392
  S        13.2253640382        6.2738771321        8.7276233877
  C        12.3671417076        9.2867490003        8.6604156141
  H        12.9046089223       10.1389890146        8.9534761735
  H        13.0484571538        8.8092942135        7.9784656352
  C        11.0559978986        9.5941405252        7.9052460482
  H        10.4991124676        8.6471067953        7.6564721651
  H        10.4634262294       10.2768775360        8.5132738345
  H        11.2579601749       10.2184383178        6.9920200639
  H        -3.0929996514       14.8383794658       15.5453423149
  C        -3.2982779202       14.0012692051       16.2449201262
  H        -4.2990859784       14.3695203904       16.5104100339
  C        -2.3063401232       13.9115445824       17.4471685843
  C        -3.2538664273       12.7882406455       15.3567648045
  C        -2.9188304013       13.6403441791       18.8918143793
  H        -1.5110996913       13.2070078891       17.3512857622
  H        -1.7208020117       14.8902402441       17.7072520655
  H        -2.8416239874       11.9719276713       15.9255712723
  H        -4.2328106325       12.5524139422       14.9259572674
  H        -2.5525174717       12.8636045720       14.5178130510
  C        -1.7900436602       13.6867214501       19.9296220027
  H        -3.4880438562       12.7574568971       18.9311907610
  H        -3.5532942855       14.4937177100       19.0956544041
  C        -2.2209214729       13.4915963616       21.4026587885
  H        -1.0104858564       13.0313363678       19.6719621664
  H        -1.3378910364       14.6339735322       19.8758208358
  C        -1.1922483071       12.8617967446       22.3482335786
  H        -3.2099592490       13.0542400667       21.6179393769
  H        -2.3710697472       14.5002828916       21.6802995900
  C         0.0370067581       13.7502468219       22.6115196546
  H        -1.6674711970       12.5483737197       23.2654941047
  H        -0.8344382203       11.9026813852       21.9156533754
  C         1.1209006781       12.9669818573       23.4689224896
  H         0.5886408981       14.0772964724       21.7462775042
  H        -0.2547669306       14.6634300288       23.2404290249
  C         1.5107401950       11.6424845070       22.7904778220
  C         0.6262989289       12.2559389420       24.7004639114
  C         2.3155746851       13.9472377383       23.6773833741
  C         1.1495160318       10.5383478443       23.5171296669
  C         2.0162600032       11.2908819025       21.5118406476
  C         0.7019946744       10.9042666204       24.7900456274
  C         0.1580546779       12.8481153343       25.8891996257
  H         2.6232876566       14.3206464931       22.6971514685
  H         2.0390100583       14.9129226959       24.0944754953
  C         3.5032289834       13.3116003892       24.4167551113
  S         1.5876291441        9.0209299464       22.7099190024
  C         2.0568787083        9.9539564544       21.2603034972
  H         2.2356325096       12.1093833634       20.7816867431
  C         0.2794657579       10.2041814953       25.9297537264
  H         0.2277261298       13.9301278239       25.9941862542
  C        -0.2536330171       12.1439331791       26.9927755028
  H         3.6395149322       12.3031140608       24.0395738345
  H         3.2429909883       13.0890916687       25.4015997313
  C         4.8058283895       14.1517047934       24.3957134752
  C         2.4056099881        9.3170381014       19.9253064957
  C        -0.1973348467       10.7909379000       27.1266229676
  H         0.4149602930        9.1472883810       26.0736456209
  C        -0.6224438878       12.5513272447       28.2438360712
  H         5.5368474588       13.8003549843       25.1392089083
  H         4.6335410592       15.1418323490       24.7955733005
  C         5.5174658058       14.3905814702       23.0387638370
  C         2.3527119710        7.9664400434       19.5367571728
  C         2.8566110089       10.1981975604       18.7782820249
  C        -0.5877363439       10.1611669298       28.5329933050
  C        -0.8071860402       11.5147417646       29.1630445582
  S        -0.9961575427       14.0644010757       28.9737012147
  H         6.3893075161       14.9668732527       23.4064478500
  H         4.9077781805       15.0309860929       22.3550002230
  C         5.9207951006       13.0157493793       22.5457164586
  N         1.9755924307        6.9281859378       20.4510044889
  C         2.6383466925        7.4496215918       18.2714160014
  C         3.2533846601        9.7087043927       17.5030172284
  H         2.8359137260       11.2849298068       18.8732439793
  C         0.5747791523        9.3171191424       29.2274210041
  C        -1.9188012373        9.2604234684       28.6077453073
  C        -1.2269732594       11.9168881614       30.4372506002
  C        -1.3118224109       13.2586599996       30.4787876652
  H         6.0779141192       12.3837144885       23.3913427737
  H         5.2046968386       12.3556515047       22.0062811284
  C         7.1698070438       12.9105532200       21.6022543354
  S         1.9944294770        5.4995894574       19.6775307514
  N         2.4530361266        6.0435264575       18.2331601703
  C         3.0713043162        8.2468181715       17.2018432010
  H         3.6155222077       10.4247970135       16.7405941607
  H         0.7748005275        8.4457943714       28.6563791772
  H         0.0488150626        8.9699986721       30.1263146027
  C         1.7365963155       10.1802703307       29.5573103491
  H        -1.6725253347        8.2678026387       28.1243156590
  H        -2.1879993803        9.1100559105       29.6385249427
  C        -3.1191380821        9.9100157862       27.9698343746
  H        -1.3417956905       11.1769554417       31.2208208543
  C        -1.6910857858       14.0108535064       31.7279364405
  H         7.0674222149       11.9703511076       21.0468924297
  H         8.0597234460       12.9072228882       22.2513424767
  C         7.3027119395       14.0936526975       20.5961788270
  C         3.4133420839        7.5406861462       16.0355349702
  H         2.2414323259       10.7092464451       28.6388266149
  H         1.4898953590       10.9742096110       30.2989060180
  C         2.8198388489        9.4051322774       30.1672590002
  H        -2.8346225370       10.3105530621       27.0199957194
  H        -3.4431982517       10.7057455213       28.6202007228
  C        -4.1357021222        8.8181063523       27.6871476423
  C        -1.8563614658       15.4233920290       31.8639500046
  C        -1.8871354090       13.2320609387       32.9887392521
  H         7.3599341941       15.0394549499       21.1022464863
  H         8.3171734541       14.0610256253       20.1239402474
  C         6.1627907201       14.1783096060       19.5683382076
  H         3.3228263732        6.4789011846       16.1808147256
  C         3.7491714749        7.9548480554       14.7671125571
  H         3.1666349462        8.6829767812       29.4133794371
  H         2.4280919229        8.9246780172       31.0907064803
  C         3.8634808443       10.3268158615       30.6603056898
  H        -3.8316728980        8.3668801118       26.7878804278
  H        -4.0783897454        8.0285211524       28.4159133899
  C        -5.6209984979        9.3039995705       27.6165870141
  N        -1.5050458443       16.4082037953       30.9359133369
  C        -2.1632702061       16.0711902760       33.0913287866
  C        -2.2451417696       13.8649490466       34.2046166115
  H        -1.5831023622       12.2045815571       33.0704021325
  H         5.8536080189       13.2074224924       19.2205637154
  H         5.3426706676       14.5839943365       20.1268002132
  H         6.3882419842       14.7836282354       18.7390390638
  S         3.9634877498        9.6338788416       14.2849422554
  C         3.9051485673        6.9812868698       13.7325759997
  H         4.0686943956       11.2010212277       30.0545876966
  H         3.6978123841       10.7965427305       31.6248507961
  C         5.2763509880        9.7532768803       30.6939717951
  H        -5.9145534192       10.1058974250       28.3033368478
  H        -6.1584837135        8.4091583773       27.8713122253
  C        -6.0136918490        9.8044035273       26.2055906782
  S        -1.7649610294       17.9423121027       31.4958862457
  N        -2.2781727244       17.4465660048       32.9580959406
  C        -2.4218410620       15.3158329756       34.2766315893
  H        -2.4103024928       13.3414740467       35.1188202143
  C         4.4349244603        8.9422244703       12.6969612305
  N         4.2288451448        7.6014858099       12.5617042351
  O         3.5317590064        5.8174589830       13.7405448359
  H         6.0271331230       10.5719306846       30.8466346150
  H         5.4383000656        9.3239877245       29.7301612428
  C         5.4963558579        8.5611736735       31.7338340262
  H        -5.1195608832       10.0021889249       25.7321563152
  H        -6.4228623702        8.9247562843       25.6678931680
  C        -6.9077476582       10.9999857374       26.1756538550
  C        -2.6675281866       15.9603817844       35.5416864647
  S         4.1685870480        9.8531659580       11.1990955780
  C         4.2480016778        6.7415070217       11.3539925414
  H         6.0822857916        9.0004775357       32.5528546011
  H         4.4972575918        8.3201833579       32.1148492445
  C         6.1342890209        7.3487328853       31.0579186237
  H        -6.8584379468       11.3235144458       25.1485596313
  H        -6.3815080304       11.7913936310       26.8304523677
  C        -8.3594480458       10.6724793431       26.6100745369
  H        -2.5702359890       17.0316340778       35.5761929419
  C        -3.2427773308       15.6088397490       36.7297167247
  H         4.8054726294        7.2322940451       10.5528709277
  H         4.6839098339        5.7834861237       11.5748782246
  C         2.8050283159        6.5092697185       10.8495683978
  H         7.0096291667        7.5322943975       30.4133259637
  H         5.3476309549        6.8850671623       30.4224399013
  C         6.5927879457        6.2395734852       31.8876004299
  H        -8.3011081359       10.3376354418       27.6310783346
  H        -8.8892209226       11.5956251711       26.6095433545
  C        -9.1927432475        9.6908113818       25.8451690268
  S        -3.9077095851       14.0644334883       37.1049409020
  C        -3.4984177278       16.6292951826       37.7640772570
  H         1.9863663095        6.3878962148       11.6087766271
  H         2.5294886636        7.3811855820       10.3521066345
  H         2.8285223395        5.8515521529        9.9964866175
  H         5.9274318377        5.9297944279       32.7230778263
  H         7.5090311206        6.4244660496       32.4725643210
  H         6.8452907633        5.3041014934       31.3168696713
  H       -10.1669840243       10.0394570552       25.6933710262
  H        -9.2833104953        8.7816599935       26.4644055787
  H        -8.7437400046        9.4653436141       24.7943272644
  C        -4.3991371320       14.7136141134       38.6437333081
  N        -4.1362284212       16.0552417314       38.7684854961
  O        -3.1430510403       17.8224302360       37.7168117525
  S        -5.0721324506       13.7677653203       39.8968891045
  C        -4.4812974583       16.7924831282       39.9063156252
  H        -4.4983388880       17.8387986098       39.6586438292
  H        -5.4401114010       16.4208779218       40.3623356529
  C        -3.3218990059       16.8435949092       40.9380317251
  H        -3.4959807863       17.7887007815       41.4709663957
  H        -3.4051353105       16.1061195729       41.7170470610
  H        -2.2918980177       16.8269126723       40.5563572985
