352
 i =    44300, time =    44300.000, E =        25.1302344716
  H        12.0265988296        6.9297320483       31.9918962355
  C        11.7627253914        5.9589043397       32.0381173356
  H        12.6907866132        5.3849848043       31.8150816075
  C        10.7098580519        5.5866876115       31.0134241585
  C        11.2199947525        5.8572745329       33.4673227107
  C        11.2995295421        5.6054415402       29.5910221481
  H        10.3833738198        4.6000744743       31.2969702547
  H         9.8031364933        6.1904711308       31.1037297325
  H        11.7990606560        6.5572115713       34.1101522633
  H        10.2326592908        6.2431217373       33.5899410965
  H        11.2806347329        4.8624693353       33.9083154353
  C        10.3049163355        5.8035552984       28.5742843528
  H        11.9852214639        4.8449947311       29.4473773273
  H        11.9045314124        6.5266678353       29.6824149506
  C        10.6228298730        5.4031946776       27.1201740721
  H         9.4670106247        5.0739623992       28.8530489841
  H         9.9677533106        6.8091766732       28.7194273842
  C         9.4263078434        4.6386614381       26.4313166248
  H        11.4670294468        4.7657380878       27.1067719198
  H        10.8863488742        6.3961389606       26.6201478426
  C         8.3110991169        5.6260661243       25.9720093796
  H         9.7303740981        4.2386108369       25.4890023482
  H         8.9588264514        3.8408406114       27.0366615111
  C         7.0828396685        4.9628709765       25.1537905069
  H         7.9876073246        6.0841421980       26.8583179129
  H         8.6075799459        6.4519438268       25.3791592567
  C         6.7057835939        3.6478524766       25.7777278276
  C         7.5307671531        4.2820491707       23.9566721718
  C         5.7999067718        5.7774728979       24.7988811894
  C         6.9501204056        2.5362711069       25.0147444430
  C         6.3017797703        3.3345172161       27.0248927433
  C         7.4538854823        2.8819178056       23.8177872220
  C         8.0973491664        5.0177528138       22.9217334781
  H         5.9797050487        6.4700491516       23.9866609394
  H         5.6033991669        6.4859106034       25.6271308225
  C         4.4929803411        4.9665407399       24.3857096934
  S         6.6179568264        1.0428878152       25.9162627522
  C         6.1835586135        1.9899001998       27.3156223215
  H         6.1506666569        4.1908779755       27.7019173906
  C         7.8135059425        2.2913320696       22.6386599531
  H         7.9786868052        6.0669243472       22.9854520031
  C         8.4428977657        4.3870973931       21.7225565127
  H         4.6075177789        4.3577919512       23.4551174063
  H         4.3508035189        4.2828039078       25.1525625793
  C         3.2972572338        5.8678420766       24.2846065185
  C         5.8441264210        1.3523178584       28.6063055161
  C         8.2883148714        3.0216400475       21.6063496139
  H         7.7017258713        1.2549551663       22.5899781244
  C         8.8800558367        4.7728049961       20.4874600097
  H         2.6145265270        5.4297722321       23.5677155535
  H         3.4729115965        6.8872315487       23.8623353080
  C         2.6233679990        5.9660807773       25.6725461404
  C         5.8689096681       -0.0400373508       28.9712609658
  C         5.4532214238        2.2302952711       29.7192982936
  C         8.6780251527        2.3887013890       20.2968861289
  C         8.9703771576        3.7045282786       19.6214732329
  S         9.2158908406        6.2666257497       19.7566955313
  H         1.9220101989        6.8040261421       25.4970770330
  H         3.4008576536        6.3362928795       26.3407124973
  C         1.8817588591        4.7165228177       26.3109746047
  N         6.1241656176       -1.0668872618       28.0193064990
  C         5.6796124964       -0.5024615917       30.2878695817
  C         5.2356679757        1.7680468247       31.0901183040
  H         5.4735396613        3.2976448295       29.4697686621
  C         7.4727089352        1.7048126251       19.5785135646
  C         9.9864147073        1.5411833040       20.3037084656
  C         9.4688748676        4.0704120347       18.3898186558
  C         9.5482944035        5.4304977141       18.2053846638
  H         1.1649959178        4.3670329212       25.5464898609
  H         2.4876977868        3.8871680055       26.4218590866
  C         1.1898207078        5.0554165125       27.5695285650
  S         6.1911452269       -2.4944676541       28.8158360191
  N         5.8161422410       -1.9289585830       30.3012560368
  C         5.2766838723        0.3060654723       31.3508057766
  H         4.8083007317        2.4842325088       31.7994425410
  H         6.8939907673        1.1064105809       20.2942073320
  H         7.8005629398        0.9852451720       18.8036405902
  C         6.4883356905        2.7512307741       19.0023165398
  H        10.0995826311        1.2636245301       19.3111164779
  H         9.7854826530        0.6703214354       20.8624378431
  C        11.2455504365        2.2758329809       20.8373783540
  H         9.7805458678        3.3545523401       17.6726742425
  C         9.9295193462        6.1964192531       16.9141096948
  H         0.6147269353        4.1945820728       27.7802457248
  H         0.5236993491        5.9507064892       27.4215938328
  C         2.1636003274        5.2669026228       28.7174301567
  C         4.9805047883       -0.3389066510       32.6324105521
  H         6.9313472285        3.4565176146       18.3288613021
  H         6.2506001625        3.3962626452       19.8171798396
  C         5.2802998012        2.0014512238       18.3201776550
  H        11.0261629696        2.5396544601       21.9265022760
  H        11.4744186296        3.2120057763       20.2551605348
  C        12.4650784680        1.3900159761       20.8183702396
  C         9.9822770970        7.5977705423       16.8771310527
  C        10.1030406436        5.4329552908       15.6155015766
  H         2.6806435615        4.3863692384       28.8576682588
  H         2.9130621108        5.9736459309       28.5935872580
  C         1.3913346011        5.5221796003       30.1092927650
  H         5.1001503123       -1.4370525452       32.6870250468
  C         4.7415805915        0.1692356664       33.9176331640
  H         4.7657277923        1.5027440074       19.0940933105
  H         5.5412200160        1.2522952707       17.5917522012
  C         4.2924770786        2.9624181379       17.6798547061
  H        12.5810654996        0.9518993562       21.8288497865
  H        12.1185963965        0.5148816663       20.2605076758
  C        13.7944709333        1.9419016145       20.2178385519
  N         9.8028676752        8.4743803282       17.9827527327
  C        10.2651083708        8.2139735002       15.6913027701
  C        10.2615869906        6.1368547660       14.4215460079
  H        10.2342274986        4.4024359284       15.6605023662
  H         0.7396513742        4.6836347725       30.3384221769
  H         1.9144749778        5.5536846758       30.9829047473
  H         0.7442305244        6.4188098765       30.1963485197
  S         4.4751552752        1.8047309950       34.3208559280
  C         4.6429887722       -0.8542003298       35.0277711815
  H         4.3108709533        3.9176803690       18.1080440366
  H         4.6333014266        2.9965793463       16.6823203051
  C         2.8577227790        2.4232310245       17.6528302762
  H        13.4810082864        2.7727750203       19.6107694819
  H        14.2078482149        1.1542455000       19.6610351760
  C        14.7400540311        2.3442097945       21.3873392948
  S         9.9877907401        9.9581851100       17.4293475117
  N        10.3221749827        9.6020130818       15.8913259192
  C        10.4020240289        7.6145579393       14.4220100520
  H        10.3516447641        5.6437497910       13.4864308860
  C         4.3448894494        1.1639055621       35.9606816439
  N         4.5425666848       -0.1293243799       36.1497255672
  O         4.6212010306       -2.0911859707       34.9580200108
  H         2.2743118997        3.1495790561       17.0366223569
  H         2.3766140940        2.4952566713       18.6953264242
  C         2.5894364213        1.0704212702       17.0080518325
  H        15.3978767983        3.1260153445       21.0587386755
  H        14.1164782091        2.6579965355       22.2672395366
  C        15.5450283410        1.2302399320       21.8793999452
  C        10.9038819963        8.4147724608       13.3371371956
  S         4.0746556442        2.1166424293       37.3648512244
  C         4.5715477454       -0.8776207190       37.4534950016
  H         1.5525763588        0.9665196840       16.6861490984
  H         3.1613569545        0.8934958240       16.0927350652
  C         2.7908639447       -0.1388163700       17.9497145647
  H        15.8843003488        0.8093915404       20.9256547009
  H        14.7995205356        0.5719161031       22.3163698562
  C        16.6612472030        1.6376249804       22.8385814162
  H        10.5048940328        9.3582085611       13.4270000205
  C        11.5482041631        8.1321193361       12.2156518980
  H         4.1455459378       -0.3296842822       38.2694551920
  H         4.0015825697       -1.7653949586       37.4360588168
  C         6.0056481683       -1.1488799620       37.9485710249
  H         2.7605179062        0.2466504043       18.9775273882
  H         3.7642975824       -0.5397963883       17.6230618206
  C         1.7857595499       -1.3032007021       17.6462413266
  H        16.4338158273        2.5052890418       23.4333733099
  H        16.9793637658        0.7787006484       23.4475090957
  C        17.8332985569        2.0622886077       22.0099304294
  S        12.0469290010        6.6323266684       11.7840021625
  C        11.6119440499        9.1691413238       11.2015379764
  H         6.3340148650       -0.4027599164       38.5960169689
  H         6.1426757461       -2.1684529333       38.3190451595
  H         6.6534384835       -1.1811171224       37.0930788322
  H         2.2802616013       -2.2314044841       17.6182505835
  H         1.3186479181       -1.1308852706       16.6926170323
  H         1.0066659143       -1.2056227602       18.4005558184
  H        18.1473151521        1.2375725256       21.3328595859
  H        18.7297302780        2.3037788899       22.6307015292
  H        17.6841305628        2.9619924857       21.4718162674
  C        12.5083872388        7.3502291314       10.2060858701
  N        12.2276043174        8.6870759018       10.0702020144
  O        11.3677264840       10.3692683553       11.3330909585
  S        13.1663167468        6.5225275979        8.8558934579
  C        12.3443923025        9.5391791889        8.9094933803
  H        12.4569420308       10.5038286436        9.1508409289
  H        13.1414498899        9.2440968439        8.1668012127
  C        11.0393740763        9.4916795023        8.1119837275
  H        10.7714101526        8.4433022396        8.1254333498
  H        10.2263789450       10.0541554794        8.5359661044
  H        11.2306886689        9.8189668724        7.1057895252
  H        -1.2848886074       12.4982797358       16.8349000748
  C        -1.7136081802       13.3860159368       16.5258570978
  H        -0.8634003326       13.9588646254       16.0663490608
  C        -2.1966806295       14.3202738907       17.6408752841
  C        -2.7741761045       13.0987128304       15.4575181916
  C        -2.7994193899       13.6096281797       18.9311765850
  H        -1.4719194444       14.9329266431       18.1567397464
  H        -2.8663769219       14.9889800100       17.1663221576
  H        -2.3941387595       13.1566883855       14.4010177787
  H        -3.3194148709       12.1700098077       15.7696015517
  H        -3.5068055248       13.8430847300       15.4159202474
  C        -1.7234514240       13.1679187995       19.8614029027
  H        -3.2174381368       12.6361689199       18.6565231736
  H        -3.5448440371       14.2494290912       19.3313449878
  C        -2.3369752872       13.1572971002       21.2524130087
  H        -1.3898121068       12.1797316916       19.4392152955
  H        -0.8376273651       13.7016813817       20.0496237110
  C        -1.4899786717       12.5687325514       22.3993651798
  H        -3.3376233259       12.7497623011       21.2265075094
  H        -2.4244973945       14.1940665454       21.4397930711
  C        -0.3032887682       13.4619721517       22.6505593462
  H        -1.9847139829       12.3105156376       23.3797957784
  H        -1.1483025928       11.6048662401       22.1014962792
  C         0.7866629174       12.8392828144       23.4489461560
  H         0.2046023143       13.7529675884       21.7315501554
  H        -0.7213353169       14.3841600541       23.1135086083
  C         1.2754379293       11.5022962050       22.7665141320
  C         0.4112219901       12.1054970060       24.7069779430
  C         2.0066871282       13.7881019983       23.6177815089
  C         1.0765035439       10.4111258024       23.6149704651
  C         1.8336289361       11.1810334481       21.5204727941
  C         0.5129898322       10.7389265672       24.8162429190
  C        -0.1104765900       12.7753485817       25.7597859795
  H         2.0633676255       14.3257215015       22.7312825634
  H         1.8014899431       14.5251331290       24.4659901603
  C         3.3995380549       13.1860954338       24.0120477231
  S         1.4753922434        8.9437907866       22.8352785844
  C         2.0340551994        9.8317196086       21.4040443366
  H         1.9110585376       11.9911401830       20.8755407275
  C         0.0783028133       10.0930321560       25.9269120736
  H        -0.0443487383       13.8856823366       25.6857895042
  C        -0.5030569022       12.1799265294       26.8817455918
  H         3.5817743611       12.4337156689       23.2466254168
  H         3.3531829543       12.6922651406       24.9526204487
  C         4.6699257126       14.0232839558       23.9798527212
  C         2.5480980419        9.1244844089       20.2061156880
  C        -0.5070332097       10.8299816088       26.9814021519
  H         0.0313424607        9.0277611016       25.9438760823
  C        -0.8282703284       12.6037405830       28.1450402705
  H         5.4306148552       13.6986591579       24.6827387991
  H         4.2382151963       14.9185808311       24.3934038162
  C         5.3380554702       14.3091986729       22.6012798213
  C         2.4550167305        7.7055358423       19.8767716942
  C         3.0808833996        9.9177752157       19.1087215617
  C        -0.9496077632       10.1719940646       28.2500191925
  C        -1.1671383346       11.5130446201       28.9399878471
  S        -0.8969391560       14.0583662381       28.8719567892
  H         5.7525896234       15.2790180475       22.6343529944
  H         4.5318631184       14.4189789217       21.7831011098
  C         6.4491255161       13.3068051974       22.1887405728
  N         2.0054919586        6.6930463038       20.7442781314
  C         2.5786224569        7.2057615317       18.5731377802
  C         3.3375391803        9.3722745273       17.8722538020
  H         3.1854132002       11.0098156805       19.1069298560
  C         0.2351613333        9.3768015852       28.8867105101
  C        -2.2947903670        9.3874670182       28.0591444164
  C        -1.3911796288       11.8784099934       30.2365532042
  C        -1.3556206928       13.1949418208       30.3792661388
  H         6.8414429912       12.9867624699       23.1502676983
  H         5.9338856893       12.4045300048       21.8427933424
  C         7.5233965707       13.9315724551       21.2318285366
  S         1.8851038494        5.2390478792       19.9772434361
  N         2.3268795646        5.8018645128       18.5197511783
  C         3.0307790454        7.9750724872       17.5371594962
  H         3.7702762614       10.0078599613       17.0969826239
  H         0.5251358110        8.6002147997       28.2309870093
  H        -0.0591659431        8.9806683005       29.8791939262
  C         1.4388932951       10.1605638902       29.2988298123
  H        -2.0342757787        8.5843145891       27.3620534738
  H        -2.6485206808        8.9088457593       28.9959338799
  C        -3.4558008843       10.1020253705       27.5098981482
  H        -1.6804970142       11.1743809672       30.9694647605
  C        -1.4707484600       13.9345550816       31.7038286853
  H         8.5233256943       13.5466316936       21.5439831593
  H         7.6403109002       14.9948088693       21.2818239129
  C         7.2996881501       13.5089038422       19.7662261772
  C         3.2616954242        7.4426843691       16.2107090905
  H         1.7707534094       10.8757161341       28.5215762930
  H         1.0811395991       10.8008972498       30.1861309889
  C         2.5788407114        9.2275320751       29.7361835860
  H        -3.1545120402       10.2702451378       26.4730531237
  H        -3.6606967987       11.0812603905       27.9880931978
  C        -4.6694865030        9.1742578439       27.4821476610
  C        -1.5277352220       15.3406674965       31.8035759708
  C        -1.6414507766       13.1548507985       32.9429689438
  H         7.9378094211       13.8800026570       18.9661500406
  H         7.4995741370       12.4329544572       19.8263031983
  C         5.8089805024       13.6776755128       19.2898337627
  H         3.2858088970        6.4752978246       16.2967324343
  C         3.4776930770        7.9322582548       14.9524301911
  H         2.7452900301        8.6676189493       28.8438170643
  H         2.1527111931        8.5805598566       30.5360908015
  C         3.8871850115        9.9065502296       30.1499617885
  H        -4.5673359219        8.3449041367       26.7301299791
  H        -4.8746187542        8.7671157872       28.4917681437
  C        -5.8460396843        9.9773398952       27.0120712145
  N        -1.3926843302       16.2095972642       30.7249974146
  C        -1.7897425062       15.9735899764       32.9590605419
  C        -1.9229705904       13.8060086873       34.1640918586
  H        -1.4860934242       12.0798108387       32.9111293877
  H         5.8671802831       13.4757834180       18.1987788060
  H         5.2089365433       12.8063223316       19.7541444924
  H         5.3561529196       14.6338629273       19.4862387898
  S         3.8573140665        9.5584269639       14.4974430809
  C         3.4477569835        6.9562782512       13.8696925974
  H         4.2363290938       10.6368752986       29.3910145182
  H         3.6659536488       10.4012099914       31.1088905072
  C         5.0893778288        9.0289294123       30.4626243504
  H        -5.6859505977       11.0529723737       27.0682764310
  H        -6.7272409982        9.6838157469       27.5151240289
  C        -6.0943509859        9.6902438444       25.5311404319
  S        -1.6188929706       17.7528027577       31.2094640571
  N        -1.9011346097       17.3726383432       32.8035767769
  C        -2.1740873990       15.2839604705       34.1494909194
  H        -2.0204456664       13.2497152804       35.0427465218
  C         4.1160379577        8.8724243093       12.8509645046
  N         3.8402458084        7.5550522366       12.7398621719
  O         3.5268232429        5.7535942197       14.0981660719
  H         5.7669916101        9.5230975113       31.1117979954
  H         5.4578769964        8.8701091640       29.4478602027
  C         4.7688307468        7.7225174932       31.0920222988
  H        -5.2679756990       10.0607070312       25.0117585034
  H        -6.1615974688        8.7297775872       25.1756402820
  C        -7.2482179339       10.5541900685       24.9716750100
  C        -2.5647843413       16.0433301507       35.3128414880
  S         4.5799824855        9.8207241119       11.4394252979
  C         3.9911572517        6.9174528161       11.4599599133
  H         3.9381044785        7.8207256267       31.7785020651
  H         4.3148073702        7.0510099869       30.3487183862
  C         5.9420566088        7.0142319727       31.7517368146
  H        -7.0260250419       10.8037326457       23.9403937976
  H        -7.3594174882       11.4339084981       25.5910130309
  C        -8.5516344869        9.7937545390       24.9209969840
  H        -2.4279639728       17.1366154850       35.2919311975
  C        -3.0113664986       15.6672858338       36.5170231501
  H         4.6498913210        7.3924707828       10.7317278697
  H         4.5365041289        5.9770468520       11.7083335370
  C         2.6789898030        6.6978267606       10.8249839802
  H         6.3026321212        7.5200732603       32.6677629653
  H         6.7970584294        7.0408440330       31.0801547959
  C         5.7282807358        5.5615848647       32.0469815627
  H        -9.1062224107       10.1650079640       24.0594693236
  H        -8.3252076537        8.6893147393       24.6986356290
  C        -9.5310766481       10.0424488304       26.1626124129
  S        -3.5771246232       14.1028753429       36.9716838474
  C        -3.1429825614       16.6701045595       37.6040505958
  H         2.5729409412        5.6453759883       10.5224162763
  H         1.8736857185        6.9352832665       11.4731451281
  H         2.5471170349        7.3176344066        9.9094283757
  H         5.2557022675        5.4345120193       33.0113550168
  H         6.6979417614        5.0701622170       32.1402585969
  H         5.1669901465        4.9827384908       31.2089298533
  H        -9.3272032947        9.4439860081       27.0584881197
  H       -10.5560173765        9.7423157146       26.1701616389
  H        -9.5268865054       11.1631481136       26.4708734767
  C        -4.0504232089       14.8123837676       38.5457026263
  N        -3.8874720460       16.1630584959       38.6313571726
  O        -2.6993982173       17.7853833461       37.5316098243
  S        -4.7021028424       13.9451520307       39.9395818500
  C        -4.2086179768       16.9578630736       39.7934054042
  H        -4.5326915418       17.9317605191       39.4275105078
  H        -5.1042944345       16.5624870484       40.2632849961
  C        -2.9846755695       17.0543165689       40.7817956548
  H        -2.1057281316       17.2166482382       40.1939679222
  H        -3.0736791704       17.9065318523       41.4307330043
  H        -2.8239008058       16.1909169131       41.3964690394
