352
 i =    31200, time =    31200.000, E =        25.4671339867
  H        12.2417722946        5.2358476269       32.1115899611
  C        11.2973441278        5.7658585503       31.9687433716
  H        10.7103599674        4.9073461744       31.6847256336
  C        11.4790285191        6.6912414772       30.8208362256
  C        10.6938500620        6.3114705885       33.2895832569
  C        11.8829006440        5.9667349826       29.5391179324
  H        10.5707817788        7.2589953582       30.6201002857
  H        12.2378714533        7.4598105382       31.0082062334
  H         9.5792598777        6.4923871795       33.2871783132
  H        10.8295028483        5.6239721135       34.1924617426
  H        11.2160159332        7.2357828859       33.5105929541
  C        10.7440249767        5.3180262081       28.7232589334
  H        12.4801903899        5.1053362076       29.7850607130
  H        12.4281945332        6.6967291115       28.9672924696
  C        10.8860528125        5.6821823842       27.2648653299
  H        10.7788474935        4.2767872353       29.0082104563
  H         9.8290123199        5.7680320220       29.0604345535
  C         9.7141590769        5.1300809688       26.4918650252
  H        11.7378062947        5.0313571384       26.9747228411
  H        11.0777097098        6.7655600823       27.0597613755
  C         8.5011030988        6.0939815446       26.3197362572
  H        10.1166775955        4.8934827862       25.4790874256
  H         9.4435465971        4.1411857812       26.8534749668
  C         7.3070921979        5.4396185682       25.6100352366
  H         8.3752832021        6.6689136398       27.2084503473
  H         8.8566424920        6.8075840693       25.5347780169
  C         7.0004825979        4.0346721191       26.2564125866
  C         7.6949577032        4.7194452362       24.3223338523
  C         6.0295077093        6.3993511108       25.5939583022
  C         7.1499929116        2.9784477513       25.4048805409
  C         6.5716239086        3.7074583712       27.5474811458
  C         7.5782818507        3.3559725403       24.1728027519
  C         8.1787561828        5.4027387350       23.2151369632
  H         6.2883725639        7.4208195179       25.1359402340
  H         5.7406548591        6.6058286487       26.6709632427
  C         4.8674397107        5.7645346014       24.8438422347
  S         6.8624897083        1.4785315823       26.2181764789
  C         6.3790586401        2.3568046603       27.7121860751
  H         6.3448337841        4.4284793995       28.2596484105
  C         7.9780282568        2.8113689163       23.0303744826
  H         8.1710779011        6.5171979347       23.2370059902
  C         8.5432102632        4.7607179091       22.0192758143
  H         5.2768531414        5.6024216751       23.8451279594
  H         4.7465548033        4.7345907321       25.2021409395
  C         3.5520030519        6.5288955368       24.8486104598
  C         5.9226827070        1.6065170438       28.9561000034
  C         8.4635724358        3.4534914457       21.9197168214
  H         7.9589056654        1.7287518107       22.8658948866
  C         8.9847349438        5.0837732571       20.7735225050
  H         2.8974775012        5.9227965896       24.1108678267
  H         3.7916284706        7.4907418456       24.4149212409
  C         2.9069170939        6.6355911214       26.2258351319
  C         5.8993268000        0.2486730427       29.1058835318
  C         5.5850943261        2.4587003897       30.1045361580
  C         8.8286466563        2.7115706502       20.6687701964
  C         9.1080396061        3.9835313713       19.9113090286
  S         9.2160038482        6.6280579445       19.9019130338
  H         1.9264842772        7.1642210933       26.1534733142
  H         3.4757704025        7.3550245089       26.7810905730
  C         2.6168739628        5.2999379045       26.9630608603
  N         6.3199751276       -0.6146295844       28.1533098083
  C         5.6748246316       -0.3300309051       30.3542625609
  C         5.2934191093        1.9122524773       31.3357089798
  H         5.6177954834        3.5492851540       30.0233068860
  C         7.5756339319        2.0520369912       19.9735218782
  C        10.1015692652        1.8307854844       20.8873205797
  C         9.4802212922        4.4048689025       18.5949031618
  C         9.4912500533        5.7547440873       18.4591965637
  H         2.1582110560        4.6185249706       26.3004971342
  H         3.5389011885        4.8335899378       27.3055041335
  C         1.7676008197        5.4114349174       28.2217250653
  S         6.2168695640       -2.0843716208       28.7965059939
  N         5.7036868981       -1.6906340062       30.2930380280
  C         5.3384600811        0.4454479435       31.5099147119
  H         4.9293170163        2.6420335247       32.0725779399
  H         7.0049309980        1.4620164353       20.6546326891
  H         8.0743541587        1.3655575294       19.2416815078
  C         6.4637033779        2.9859667577       19.3456188375
  H        10.3342472914        1.1766630845       19.9896443449
  H         9.8423021095        1.1674881735       21.6732431294
  C        11.4176603535        2.5467882865       21.4080324651
  H         9.7906955647        3.6978982208       17.8870286521
  C         9.9273172443        6.4713104250       17.1564640823
  H         1.4812231327        4.4643816128       28.5460704862
  H         1.0408314330        6.1148948212       28.0869555388
  C         2.5794464712        5.8035455253       29.3320542076
  C         5.0606036435       -0.2390047413       32.7045904556
  H         6.8664124926        3.4979988282       18.4609479977
  H         6.1257665258        3.7296899489       20.0945028289
  C         5.2925762952        2.2561566178       18.8077835601
  H        11.3929014245        3.1613620482       22.3025082994
  H        11.6529183803        3.3758771564       20.7402466394
  C        12.6605514218        1.6861167744       21.4072375122
  C         9.9104273940        7.8727059713       16.9542195033
  C        10.2758921952        5.6136948044       15.9440925264
  H         3.2867396244        4.9850511723       29.6075984141
  H         3.2525708765        6.6805304956       29.2246935791
  C         1.9054709871        5.9933961080       30.5930984319
  H         5.0986134691       -1.2980902359       32.6110949295
  C         4.8211685918        0.1706429373       34.0104606998
  H         4.8044212123        1.7291696530       19.6280055364
  H         5.6387046211        1.3935483729       18.2094627628
  C         4.1945831421        3.0850163013       18.1174218027
  H        12.7592011097        1.1293175073       22.3310529422
  H        12.7038188605        1.0063837050       20.6305963174
  C        13.8962620729        2.5981076492       21.1469043716
  N         9.6624561852        8.8911894050       17.8958827168
  C        10.2205310760        8.4193073089       15.6807660996
  C        10.5005652658        6.1557919325       14.7044098906
  H        10.3540661361        4.4755467670       16.0504479365
  H         0.9810034787        6.4667310471       30.3038087949
  H         1.7662534988        5.1267259859       31.2691020337
  H         2.4191245993        6.7179000724       31.1587970230
  S         4.6765282992        1.7778882994       34.5237388646
  C         4.6355591510       -0.8588125671       35.0765117341
  H         3.9944088735        4.0087711522       18.6679237213
  H         4.4183436808        3.5269354159       17.1183359857
  C         2.9216881506        2.3487816570       17.9474138770
  H        13.7695946505        3.4398421366       20.4857745867
  H        14.5898959805        1.9008807868       20.7086120662
  C        14.4075941404        3.0065996538       22.5189704666
  S         9.7359435694       10.3513939936       17.1754306466
  N        10.1023992734        9.8354259493       15.6339660369
  C        10.6133014373        7.6093785787       14.5779407206
  H        10.7633927322        5.4938843371       13.9501423537
  C         4.3560730171        1.0601763469       36.1358537047
  N         4.2819976380       -0.2883906168       36.1932990076
  O         4.8258412285       -2.0526612729       34.9067318322
  H         2.1834957622        3.1343620002       17.5531158211
  H         2.5641440074        2.0774623707       18.8224890667
  C         3.0289785926        1.0704607076       17.0074928932
  H        14.9755188357        3.9413589327       22.3479657877
  H        13.5651336030        3.2619833121       23.1408838462
  C        15.1686282261        1.8621241982       23.2252382444
  C        10.9554963384        8.1408956986       13.3155823438
  S         3.8803442261        1.9448142841       37.6056452890
  C         4.0978297452       -1.0862653981       37.4600444942
  H         2.0354225926        0.9678349148       16.5658642123
  H         3.8093746901        1.1428463888       16.2064508433
  C         3.0605205620       -0.2886723534       17.8077718232
  H        15.1539273380        1.0085117455       22.5314632195
  H        14.5562782195        1.4849140679       24.0847122887
  C        16.5476690994        2.2795551852       23.7149297407
  H        10.6223856215        9.1209614903       13.2538745886
  C        11.6147245090        7.6995576583       12.2180347320
  H         3.5384013394       -0.5874572571       38.2179873704
  H         3.4905600161       -1.9945516528       37.2014761486
  C         5.4114480409       -1.3918306280       38.0748568668
  H         3.6834999307       -0.1833727032       18.6840417989
  H         3.6906036280       -1.1051824700       17.3128225867
  C         1.6475182596       -0.6534341778       18.3024070525
  H        16.5470508682        3.3955044181       23.7800073935
  H        16.7473889490        1.7345199713       24.6587546439
  C        17.5397176267        1.8247382930       22.6012790568
  S        12.3756058702        6.1826869548       12.0938051656
  C        11.7366984224        8.5869282840       11.0251559195
  H         6.1818516261       -1.7065132002       37.3991790201
  H         5.7106217417       -0.4848710579       38.5258111651
  H         5.2914274863       -2.1515093552       38.7648535493
  H         1.3283429244        0.0438646250       18.9961396496
  H         1.5367864766       -1.6516988838       18.7397979342
  H         0.9402703401       -0.6536887824       17.4873868355
  H        17.7213304207        2.6934879007       21.9487018510
  H        17.3314056342        0.9451717503       21.9756365786
  H        18.4954104716        1.7255825904       23.1191659464
  C        12.9451823178        6.7574613854       10.5693489531
  N        12.5853152091        7.9893325950       10.1777639931
  O        11.0413095834        9.5789463821       10.8654160502
  S        13.9494167086        5.7376276825        9.4940887675
  C        12.8318526776        8.5591159787        8.8478666404
  H        12.7337372761        9.6572756869        8.7411406331
  H        13.8240775583        8.3030854024        8.4987764960
  C        11.7613423249        8.0778764100        7.8539852736
  H        11.2686319533        8.9742499794        7.3816109144
  H        12.1680137434        7.3868367706        7.0620028080
  H        10.9300843419        7.6269219162        8.4274413573
  H        -2.3364134802       15.1106534792       16.0320593351
  C        -2.6863052024       14.1656259402       16.2673826984
  H        -3.7655457526       14.3493060443       16.4756609067
  C        -1.9504350472       13.5754230975       17.4596658382
  C        -2.6572617369       13.1959620596       15.0824179153
  C        -2.4345503018       14.1422271748       18.7691619645
  H        -2.1427459322       12.4781451552       17.4965196537
  H        -0.9375585508       13.6212961443       17.2869478423
  H        -1.6545600743       12.7675271029       14.7910092828
  H        -3.2750253436       12.3396628701       14.9367997173
  H        -2.9683436335       13.6745875756       14.1489276963
  C        -2.1250976134       13.1891095205       19.9937233339
  H        -3.4658478163       14.2412030209       18.7743824262
  H        -2.0191639158       15.0960118304       18.8856466010
  C        -2.6664607819       13.5877342285       21.3782213553
  H        -2.5574859154       12.2422196134       19.6910775262
  H        -1.0611780293       13.0741020197       19.9259898336
  C        -1.6132796025       13.0786774665       22.4589698603
  H        -3.5883941819       13.0741183641       21.5707300348
  H        -2.7955840240       14.6660178722       21.2770479597
  C        -0.4173928182       13.9823506689       22.6115457447
  H        -2.1541486053       12.9736845342       23.4196304610
  H        -1.4649379969       12.0311774739       22.2474713590
  C         0.7893350135       13.2310352458       23.1680846776
  H        -0.0944300858       14.2236653985       21.5507159532
  H        -0.6950630763       14.8355608225       23.1924744363
  C         1.0969266635       11.8450411484       22.4960582280
  C         0.5848087191       12.5037416619       24.5019752213
  C         2.1021587987       14.0970184430       23.2095441742
  C         1.0825093302       10.8192416800       23.3883411235
  C         1.3927398513       11.4109649314       21.1984677462
  C         0.7183310819       11.1893635038       24.6508224933
  C         0.2211349836       13.1633661766       25.6544664143
  H         2.1227540383       14.6231860472       22.1995622345
  H         2.0072098282       14.8657746313       23.9903081651
  C         3.4236566162       13.3732502081       23.5683989783
  S         1.3941435086        9.3053483742       22.7259772635
  C         1.6798662947       10.0371027349       21.1848223254
  H         1.3910438464       12.1351915101       20.4084940460
  C         0.3837005439       10.5418527568       25.8139742682
  H         0.1082073342       14.2451286699       25.5832476202
  C        -0.1223703139       12.6031555270       26.8449508140
  H         3.6038759833       12.4503845143       23.0108237066
  H         3.2048730067       12.9785265764       24.5454098361
  C         4.5885569773       14.3245345505       23.4907921545
  C         2.1830520980        9.3107627440       19.9433788053
  C        -0.0420493766       11.2799581500       26.9798052230
  H         0.4328387295        9.4624250134       25.9163149156
  C        -0.5616029120       12.9937256754       28.0313673366
  H         5.3686736847       14.1430189025       24.1994104346
  H         4.1441390942       15.3282583838       23.6894681553
  C         5.0538000273       14.5097479063       22.0428894189
  C         2.3252986624        7.9594700562       19.6851343526
  C         2.6547139757       10.2260878935       18.8803817192
  C        -0.4784775018       10.5461007734       28.1924845316
  C        -0.7554151312       11.8705378682       28.8422402720
  S        -0.9247314053       14.4966311617       28.7898679050
  H         5.8272227763       15.2832508331       22.0262472167
  H         4.2091254055       14.8638174282       21.4134382258
  C         5.5593444393       13.2021990337       21.4777561058
  N         1.9121486811        6.9435072996       20.5368590215
  C         2.6410069151        7.4460257088       18.4071530351
  C         3.0756775265        9.7469356365       17.6571763479
  H         2.6186379977       11.3039638951       19.0341627411
  C         0.7350005189        9.7586609293       28.8778534565
  C        -1.7488349285        9.6852049712       27.8539213542
  C        -1.1261331990       12.2999494838       30.1144114109
  C        -1.2301490582       13.6742114986       30.2324278362
  H         5.5970481864       12.5136940963       22.3540964632
  H         5.0045050061       12.8633583780       20.6557483170
  C         6.8492796926       13.2923320331       20.7362928540
  S         1.7845547589        5.5425972454       19.6732206668
  N         2.5486814373        6.0903607661       18.3118474124
  C         3.0706457779        8.2941450279       17.3840681918
  H         3.5027037733       10.4565114400       16.9855802679
  H         1.0736756752        9.1138355739       28.0966339218
  H         0.2097364581        9.1107546850       29.6137481717
  C         1.9203366764       10.5551568519       29.3838279802
  H        -1.4480053288        8.9231504952       27.1068881881
  H        -1.8827788111        9.0857698405       28.6840318645
  C        -3.0279378324       10.5247444998       27.5179310944
  H        -1.1053443876       11.6039274272       30.9011593788
  C        -1.3961676706       14.4174318836       31.5021073938
  H         7.0641412005       12.2997154368       20.4339829466
  H         7.5988208875       13.5319715368       21.4679823309
  C         6.8969382608       14.2706065905       19.5690075633
  C         3.3339729600        7.6881801388       16.0793283549
  H         2.2541931854       11.3766472215       28.7266078923
  H         1.6040824701       11.1119195664       30.2493842443
  C         3.0695245765        9.6981937246       29.9116475023
  H        -2.8527388198       11.1999099236       26.6289601588
  H        -3.2973330120       11.0355609174       28.4055367418
  C        -4.1501609879        9.4287465627       27.3398060638
  C        -1.5359916151       15.8890975066       31.5893015639
  C        -1.3972171964       13.6254588730       32.7054246701
  H         6.6956959248       15.2956949846       19.8345350570
  H         7.9886928138       14.2567193073       19.4403977199
  C         6.2980048420       13.7644143204       18.2443334273
  H         2.9121192974        6.7378415776       16.0158817518
  C         3.7222194858        8.1390798811       14.8344230757
  H         3.4069707872        8.9337123505       29.2296694921
  H         2.7491602501        9.1609423910       30.7399718207
  C         4.3146073044       10.5551512878       30.2291133721
  H        -3.8906250615        8.6802627689       26.5457159444
  H        -4.2328311258        8.9373331420       28.2962426318
  C        -5.5288518099       10.0363838413       27.0219865851
  N        -1.4570224900       16.8481318678       30.5646613728
  C        -1.8625345682       16.4687988912       32.7870848705
  C        -1.7233239336       14.3051007882       33.8649122586
  H        -1.1686028824       12.5627072642       32.7584663554
  H         6.6832164790       12.7694162768       17.9444112876
  H         5.2470759171       13.5388917193       18.3462325659
  H         6.3172603351       14.4754812731       17.4431482401
  S         4.0818555941        9.7671192537       14.3625815688
  C         3.7266774638        7.2079574724       13.7151690772
  H         4.3302744130       11.4167877454       29.5434370033
  H         4.1795833171       10.8603412795       31.2520762905
  C         5.5893598483        9.6903807853       29.9893202112
  H        -5.7925458315       10.7467197963       27.8039952978
  H        -6.2722375265        9.2031672308       27.0712795100
  C        -5.7412791402       10.5958155298       25.6291594331
  S        -1.3773990696       18.3367001005       31.2410734846
  N        -1.7665433793       17.8760043540       32.7780977648
  C        -2.1210499893       15.7579264770       34.0058605646
  H        -1.7337409529       13.7941498896       34.8288529078
  C         4.1798360009        9.1329631960       12.7365486701
  N         4.1331008439        7.7957643893       12.6085622245
  O         3.7357522672        5.9823662683       13.8877061783
  H         6.4200492594       10.4187374996       29.8379947334
  H         5.4597009160        9.2528399305       29.0111118760
  C         5.8008112034        8.5889974049       31.0301770662
  H        -4.8920831678       11.1751544192       25.4028512543
  H        -5.6603332947        9.7542139275       24.9603261427
  C        -7.0597621584       11.3249258200       25.3488493039
  C        -2.4006232458       16.5379248085       35.1782686541
  S         4.6412443766       10.0701417860       11.3494519974
  C         4.3650646790        7.0332602873       11.3693894491
  H         6.2278026927        9.0882026636       31.8411002621
  H         4.8399362452        8.2675316240       31.4052968076
  C         6.6317095406        7.4253799237       30.4262994187
  H        -6.8458834379       12.0651873323       24.5158177584
  H        -7.2071121232       11.8916173882       26.2155393309
  C        -8.1721458719       10.4122559962       25.0326374264
  H        -2.0993162868       17.5275006155       35.1723275647
  C        -2.8940871412       16.1668884363       36.3603227870
  H         4.9183486918        7.6043208938       10.5734707907
  H         4.9270718554        6.1171711987       11.6201108628
  C         2.9565010653        6.7352570214       10.8105457116
  H         7.5597174490        7.9163803528       30.0900413708
  H         6.1281529915        7.0070377759       29.5672646547
  C         6.6525178163        6.2565363055       31.4550239456
  H        -8.6114355643       10.8385587333       24.1728305574
  H        -7.6445038438        9.4995449140       24.6018259441
  C        -9.2618951655       10.1456984241       26.0418333253
  S        -3.4502796992       14.5343039007       36.7039898536
  C        -3.1557972595       17.1326822322       37.4897864775
  H         2.4666520925        7.6271559040       10.4450695152
  H         3.0516070146        6.1971868473        9.8981932619
  H         2.3731020322        6.1285650849       11.4078464668
  H         5.9177003088        5.5188809204       31.0482804558
  H         6.3556477923        6.6721225977       32.3940132693
  H         7.6665058075        5.8801070992       31.4834395396
  H       -10.3173718616       10.0770576600       25.6941170127
  H        -9.4079811437       10.9776355067       26.7884371856
  H        -9.0391703098        9.3068187211       26.7766770053
  C        -3.7462718766       15.1022799785       38.3037919214
  N        -3.6233671278       16.4382848590       38.5630346085
  O        -2.7785342021       18.3292721590       37.4446104252
  S        -4.6719958252       14.2338601993       39.6042645629
  C        -3.8235335173       17.2193896987       39.8151428047
  H        -4.0804228310       18.2832739553       39.6072812501
  H        -4.6622002484       16.7960369799       40.3932809759
  C        -2.5937995159       17.3246400410       40.6231077224
  H        -2.7130293950       18.2614291713       41.2089680814
  H        -2.4471084098       16.4283911264       41.2456530813
  H        -1.6721708878       17.4760226883       40.1174146677
