352
 i =    81900, time =    81900.000, E =        25.5462847984
  H        10.5047454746        7.1162205843       32.1022227394
  C        11.5541365579        6.8509155533       32.0986103901
  H        12.0862425154        7.7618591018       32.1980196396
  C        11.7912732872        6.1218470753       30.7716715234
  C        11.7503831699        5.9117576619       33.2574306581
  C        10.6899294680        5.2237982276       30.3103253028
  H        11.9898814234        6.8891925512       29.9720951042
  H        12.7007830894        5.4679223582       30.8060365341
  H        11.6662771832        6.5786037208       34.1376142731
  H        10.9683844269        5.1487018748       33.2678873583
  H        12.7061581911        5.4234470172       33.3512509753
  C         9.9391640515        5.7118040719       29.0942512075
  H         9.9426744851        4.9342064563       31.0519555227
  H        11.2961344863        4.3468594817       30.0416607080
  C        10.8373123441        5.7451398458       27.8530132719
  H         9.0993396511        5.1381861308       28.8262154964
  H         9.6523883676        6.7668939960       29.2981862101
  C        10.1282115489        5.1604796481       26.6761886577
  H        11.6969834441        5.1865369744       28.0418540189
  H        11.1835878629        6.7344448850       27.5391363608
  C         8.8846295587        6.0293915823       26.2091604329
  H        10.8107450146        5.0693404473       25.8456771170
  H         9.9314976691        4.1490226470       26.9140194264
  C         7.6321930117        5.3381312030       25.5610333686
  H         8.4112045899        6.5911113351       26.8973080906
  H         9.2922339018        6.7180406359       25.4611872114
  C         7.2606824654        3.9865333135       26.2095562696
  C         7.9508053156        4.6342370836       24.2548264888
  C         6.3730722985        6.1415162633       25.1574931810
  C         7.4417913198        2.8946450061       25.3923619625
  C         6.8633547588        3.5780174888       27.5064844067
  C         7.9288843617        3.3143836939       24.1478371433
  C         8.2795870356        5.3592136440       23.0703801239
  H         5.9703195805        5.7164709389       24.2643768685
  H         6.7449233679        7.1176107449       24.8512750910
  C         5.2892169986        6.3333046649       26.2234481851
  S         7.0673356501        1.3484647532       26.1196698442
  C         6.7586833602        2.2167437729       27.5935579381
  H         6.7733448751        4.3819657501       28.2591005479
  C         8.2786822193        2.7059686509       22.9828992514
  H         8.2640668637        6.4516415323       22.8821205302
  C         8.7382957428        4.7038424904       21.9552776807
  H         5.1262705118        5.5762674627       26.9568288077
  H         5.6716599719        7.1469096908       26.9027615848
  C         3.8834480759        6.5297040444       25.5404587362
  C         6.2513633025        1.4686595996       28.7645189448
  C         8.7504346005        3.3737152434       21.8247618856
  H         8.2014270317        1.6976273149       22.8532104879
  C         9.1955341201        5.0967555791       20.6897150526
  H         3.7622889393        5.7359894043       24.8449243516
  H         3.8711610291        7.3797316405       24.7785730019
  C         2.7807720503        6.7337830982       26.7671908336
  C         6.2973662167        0.1087084397       29.0141187384
  C         5.7588704610        2.3408386480       29.8653946895
  C         9.1188530458        2.6846146109       20.5279647571
  C         9.4455855937        4.0240872375       19.8334459507
  S         9.5859526867        6.6070345615       20.0680717709
  H         2.0982574518        7.5602271605       26.3222482432
  H         3.3220116843        6.9754002019       27.6334579194
  C         1.8928587433        5.5754374333       27.0908261143
  N         6.7151400086       -0.7916662256       28.0618685308
  C         6.1363883909       -0.4645200109       30.3012313059
  C         5.6019375024        1.8308263080       31.1244499168
  H         5.5993980944        3.3717461577       29.7227424160
  C         7.9239708488        1.9070382610       19.9320345425
  C        10.3638742852        1.7861008112       20.5832978000
  C         9.8175447697        4.4548714748       18.5834822107
  C         9.9161851092        5.8229593866       18.5521382941
  H         1.2461383017        5.4657093493       26.2159981158
  H         2.4267531236        4.6947464170       27.1654051795
  C         1.0023946031        5.6054365041       28.3220610341
  S         6.7394527854       -2.3166587470       28.7078395896
  N         6.4124191469       -1.8610623546       30.2898583800
  C         5.7276842761        0.3419996953       31.3993622250
  H         5.3158456522        2.5631464769       31.8589682129
  H         7.4905993512        1.1704946190       20.6217108018
  H         8.4124778910        1.4411072131       19.0649766841
  C         6.7026926370        2.7699545929       19.4140332253
  H        10.5947523443        1.5519370586       19.5697519592
  H        10.0850322271        0.7950181495       21.0092247755
  C        11.5377531581        2.3101602714       21.3126358721
  H         9.8917526833        3.7406902777       17.7959722283
  C        10.4193133042        6.5982836020       17.3442889358
  H         0.2393000132        4.8500535311       28.2091726884
  H         0.5225211957        6.6197776792       28.4367582926
  C         1.7394279593        5.1880943656       29.6507480177
  C         5.6192560216       -0.3313401521       32.7044973449
  H         6.9598714834        3.4635714539       18.5006015930
  H         6.4281450720        3.6257412735       20.0454144678
  C         5.3670271504        2.1916301182       19.0571653871
  H        11.2452195276        2.4543292659       22.3539835787
  H        11.8634900166        3.2479611181       21.0006396801
  C        12.7054499031        1.3644518684       21.2968743641
  C        10.5387996984        7.9641823960       17.2256124931
  C        10.3794903356        5.8771231442       16.0101758771
  H         0.9876761104        4.8366439972       30.3498059663
  H         2.4060289964        4.3822161405       29.5099047855
  C         2.5823151417        6.1737027332       30.4986102158
  H         5.7348620585       -1.4307674072       32.6768603674
  C         5.1848413568        0.1482654079       33.9242030207
  H         4.4886841077        2.9280092993       18.9740370662
  H         5.1155147095        1.4451979321       19.8078245797
  C         5.3690134420        1.4274508306       17.7539221490
  H        12.5801796980        0.6091717956       22.0727832422
  H        12.9785385936        1.0174644986       20.2965379430
  C        13.7607007747        2.3168345764       21.7945040606
  N        10.1590256403        8.8415873793       18.2084378976
  C        10.8381900642        8.6346283205       16.0050957896
  C        10.7119755116        6.4883296214       14.7882138214
  H        10.3263809323        4.8022408865       15.9805298987
  H         2.9260852086        5.6227210063       31.3795458765
  H         3.4701108639        6.5350853306       30.0239429538
  H         1.9666288357        7.0073915017       30.9133740747
  S         4.7933461293        1.8055396752       34.3434185040
  C         5.0427288566       -0.8865349154       34.9375889943
  H         5.5771237699        2.0727448364       16.9185441433
  H         6.1154421190        0.6143759939       17.8825167391
  C         4.0051706793        0.7519082213       17.4666893873
  H        13.4101167288        2.9680490602       22.5893642183
  H        14.1237143667        2.9194776144       20.9481635285
  C        14.9541732841        1.5675622550       22.3980992129
  S        10.2445776853       10.3895076775       17.5594318453
  N        10.7734279250       10.0053357033       16.1029294339
  C        10.9670631843        7.9602956142       14.7869159923
  H        10.8270266008        5.9537597479       13.8894944182
  C         4.5881663686        1.1189329381       35.9442536818
  N         4.6824257894       -0.2606693856       36.0653154533
  O         5.1708428687       -2.1047306738       34.7401387458
  H         4.1004323912        0.3737710885       16.4042860138
  H         3.2096871508        1.4604767037       17.4956943232
  C         3.7130675166       -0.4904303044       18.3165746562
  H        14.6799534971        1.0341035229       23.3156441822
  H        15.4025677022        0.8789204405       21.6990009936
  C        15.9700886766        2.5401982741       22.9513860686
  C        11.2247622513        8.7084688266       13.5893304981
  S         4.1097102604        2.1514578828       37.2804040477
  C         4.7953543951       -0.9504511599       37.3876319604
  H         4.4205907627       -1.2505681922       17.9879035755
  H         3.8738384169       -0.2095109805       19.4285475435
  C         2.2232013250       -0.9692448345       18.0804600153
  H        15.5255184399        3.1913530100       23.7214482381
  H        16.2257220251        3.2421338914       22.0916567640
  C        17.1921854472        1.9679496454       23.5838641577
  H        11.0301635642        9.7950936411       13.8175409273
  C        11.7488989693        8.3520793086       12.3715325951
  H         4.0806780386       -0.4921683772       38.1468508611
  H         4.3381182064       -1.9083469961       37.3002394224
  C         6.2677107532       -1.1785978022       37.8987750241
  H         1.3651369671       -0.3259528458       18.1329155690
  H         2.0860499157       -1.7592708402       18.8738431394
  C         1.9959272694       -1.6411926029       16.7300002935
  H        17.5967757171        2.4863809743       24.3525458149
  H        17.0842369730        1.0152772888       24.0611335659
  C        18.3074805235        1.8972944966       22.5819110658
  S        12.3837796761        6.8390019284       11.9899863780
  C        11.8803042953        9.4449407088       11.3803019619
  H         6.9801205093       -1.5564851352       37.1000565970
  H         6.4745157651       -0.2773893183       38.3682450081
  H         6.1473628730       -1.9484046173       38.6811983359
  H         2.7676719445       -2.3929750548       16.5187071764
  H         2.0834552017       -0.9261314610       15.9136327205
  H         0.9166781094       -1.9752383790       16.6142551367
  H        18.8661279982        2.8429752793       22.5617641090
  H        18.0356424068        1.8216377395       21.5761710224
  H        18.9392041165        1.0292717722       22.7912185973
  C        12.7706791462        7.5452560779       10.5213453185
  N        12.4918286630        8.8583097863       10.3524558219
  O        11.4577015369       10.5886563922       11.4692700346
  S        13.7440499642        6.7139082404        9.2877136647
  C        12.6259407088        9.5852288621        9.0722484165
  H        12.8173745908       10.6466099028        9.3413609815
  H        13.5356511419        9.2990187341        8.5248105772
  C        11.3301811190        9.4387928800        8.2672477456
  H        11.1260959346       10.1678780522        7.4494054028
  H        11.5039845760        8.5573691394        7.6828941034
  H        10.4507472928        9.3831089492        8.8558366523
  H        -1.0175015074       15.0740818470       16.9736508573
  C        -2.0028235827       14.8681688950       16.7219386843
  H        -2.5745307756       15.7968517788       16.8257469090
  C        -2.4459433767       13.9089472457       17.7706199509
  C        -2.1096520767       14.3050652594       15.3450646774
  C        -1.9057084817       14.4374714376       19.1035101189
  H        -3.5125642068       13.5491470511       17.6462516964
  H        -1.9001227801       12.9807776139       17.5733450629
  H        -1.7291456926       15.0709836587       14.7453076809
  H        -1.5315393454       13.3426415184       15.2134501830
  H        -3.1397454966       14.1222225398       15.1075393416
  C        -1.5273301797       13.3414054049       20.0744583570
  H        -2.7016133971       15.0506982778       19.4163230403
  H        -1.0734029617       15.0666237336       18.9360297765
  C        -1.8299210860       13.6652826530       21.5702823130
  H        -2.0558244500       12.4221997007       19.7731051232
  H        -0.4364254869       13.0565596366       20.0244522501
  C        -0.8587763379       12.8964146762       22.4070883117
  H        -2.7385404383       13.0963177530       21.7285007044
  H        -1.9974664696       14.7082007775       21.7387239539
  C         0.3744075428       13.7801800888       22.6258206076
  H        -1.4265863430       12.6916286169       23.3380594575
  H        -0.6034587361       11.9209979137       21.9501113614
  C         1.5285506584       13.0338627001       23.1685561874
  H         0.6327224467       14.2366093414       21.6589398572
  H         0.2088183443       14.5974322810       23.3029562329
  C         1.8392781322       11.6800177101       22.4477025017
  C         1.2052882261       12.3189521597       24.4067093241
  C         2.7843069875       13.9589715540       23.1558911505
  C         1.7290686544       10.5927515564       23.2719620892
  C         2.3132953078       11.3518147559       21.1451800582
  C         1.2849976546       10.9968088587       24.5413895425
  C         0.7425682643       12.9885233615       25.5842475186
  H         3.0793410602       14.1235274698       22.1224216518
  H         2.4908395485       14.9015264721       23.5993015625
  C         3.9154532186       13.4244708505       24.0362265286
  S         2.2360542897        9.1071599899       22.5723838435
  C         2.5163190012       10.0003781078       21.0518334307
  H         2.3485977303       12.1652139727       20.4013261786
  C         1.0131769172       10.3706225103       25.7196758585
  H         0.6348504586       14.0013990117       25.6426852056
  C         0.4983980987       12.3437677775       26.7424276290
  H         4.1939394878       12.4893324528       23.5800623865
  H         3.5435569655       13.1659767988       24.9615755691
  C         5.1481457916       14.3214258614       24.1442702730
  C         2.8364300010        9.3851357504       19.7297636916
  C         0.6474908829       11.0434354549       26.9075390523
  H         1.0700460113        9.2706344322       25.7815743518
  C         0.0497640714       12.7351854223       27.9483522944
  H         5.9085911418       13.8210824916       24.6877117729
  H         4.9883895313       15.2311952527       24.6890349156
  C         5.7920640318       14.6346002435       22.7864195526
  C         3.0108705833        8.0029151836       19.5021041057
  C         3.1014830356       10.2241061482       18.5080408204
  C         0.2550406616       10.3078152247       28.1452897160
  C        -0.1281579447       11.6287622292       28.8100493746
  S        -0.3912168832       14.2482001341       28.6414775800
  H         6.4892769295       15.4919589337       22.9635075105
  H         5.0068610689       14.9671122815       22.1167792971
  C         6.6746461777       13.4365592100       22.4060589800
  N         2.8899083606        6.9622870011       20.4593117788
  C         3.3053841652        7.4596752309       18.2508788909
  C         3.5243319013        9.6965960637       17.2986925687
  H         3.0686220733       11.2875007023       18.6892225650
  C         1.4915732517        9.5746552647       28.9183271758
  C        -1.0169043799        9.3849593540       27.9335262908
  C        -0.5559216086       12.0978420028       30.1147073813
  C        -0.6252367176       13.4816274734       30.1488011556
  H         7.2165119920       13.1927668925       23.3072892936
  H         6.1728497903       12.5085704142       22.2778479057
  C         7.5552971895       13.5749123246       21.1856423511
  S         2.8265092385        5.4916339010       19.6503893466
  N         3.1643571224        6.0179147689       18.1529333930
  C         3.6633859015        8.2343915853       17.1198110945
  H         3.9262924788       10.3686788708       16.5350138587
  H         1.8779462383        8.7461275205       28.3769026376
  H         0.9526285631        9.0151501839       29.7426352245
  C         2.6057991718       10.4868070347       29.4832665557
  H        -0.6723626287        8.5149151260       27.3944440662
  H        -1.3792788801        9.0686037425       28.9192780635
  C        -2.1131454096        9.9898351206       27.0825871433
  H        -0.8134899975       11.3390172778       30.8299367313
  C        -0.9870490655       14.2336274221       31.3809989814
  H         8.1520410988       12.7315078160       21.3120676417
  H         8.1264102947       14.4168840920       21.2169714395
  C         6.7249768076       13.7859289839       19.8963038211
  C         3.8975735719        7.5731142408       15.8673527226
  H         3.0066187055       11.0625052042       28.6941945803
  H         2.3475610096       11.2330278937       30.2609923404
  C         3.7324908624        9.6174792966       30.0617959261
  H        -1.7052287718       10.3600838177       26.1136405572
  H        -2.3970176442       10.9838832815       27.4944614180
  C        -3.5277167448        9.3635945767       26.7841252733
  C        -1.0814291471       15.6402057868       31.5076800781
  C        -1.4160932127       13.4686454929       32.5484902730
  H         5.9898170590       12.9515004341       19.9079527473
  H         6.1366437543       14.7124109992       19.7998651061
  C         7.4553565390       13.6558907907       18.6082000991
  H         3.8926369707        6.4418125186       15.9609599122
  C         4.2203386709        7.9406847775       14.5909589042
  H         3.8397210650        8.7460447088       29.4973379468
  H         3.4473628085        9.2623622463       31.0400562079
  C         5.0397813580       10.3370648472       30.0644255602
  H        -3.4654423751        8.6186789647       25.9894440714
  H        -3.8052224041        8.8494117311       27.7024116606
  C        -4.6468810392       10.3886805127       26.5892334017
  N        -0.7687611902       16.6327535879       30.5615205011
  C        -1.6189789250       16.2407175721       32.6968378727
  C        -1.8230773279       14.0664369160       33.7118838516
  H        -1.4298384238       12.3545081533       32.5966929616
  H         7.7738073338       12.6371682401       18.6972816041
  H         6.7243089253       13.7686991693       17.8933893093
  H         8.4008053695       14.1443574438       18.4676440642
  S         4.3783494724        9.4935870692       13.9904777582
  C         4.3735954235        6.8638811754       13.5188032754
  H         5.3934245438       10.3782860554       28.9917676652
  H         5.0003345681       11.3543515050       30.3908281090
  C         6.1395625848        9.5602707880       30.8494373461
  H        -4.3406538211       11.0736375919       25.8361562937
  H        -4.7504056950       10.9939314212       27.4992974461
  C        -5.9271562193        9.7739848516       26.0946505729
  S        -1.1602303782       18.1681508751       31.1903243826
  N        -1.6644155132       17.6737032233       32.6462151746
  C        -2.1226347147       15.5325545118       33.7912973385
  H        -2.0177259683       13.3454068641       34.5446647626
  C         4.6557526208        8.7562958358       12.4261681217
  N         4.6892667082        7.4451953404       12.3732359910
  O         4.3374382397        5.6181309127       13.8045545443
  H         5.8403923538        9.3582354122       31.8533059200
  H         7.0370339029       10.1238949481       30.9537792165
  C         6.5894003169        8.2017342236       30.1096675006
  H        -5.8359707278        9.1707433225       25.2136672818
  H        -6.3099000169        9.1834468526       26.9062715290
  C        -7.0363317273       10.8026783864       25.8623991673
  C        -2.5043031486       16.1856718146       35.0381797589
  S         5.1586175769        9.5514991208       10.9152651066
  C         4.8272728530        6.7281468348       11.0866543882
  H         6.2441287000        8.2643354085       29.1042067926
  H         7.6436280901        8.2300278501       30.0721829952
  C         6.1296150610        6.9805480980       30.8639433347
  H        -6.6449968682       11.5562713888       25.1579129576
  H        -7.2600521673       11.2332563961       26.8378726253
  C        -8.2782641660       10.0876255053       25.2754569885
  H        -2.3264032547       17.2058389306       34.9275408439
  C        -2.9493605743       15.7573013860       36.2885975797
  H         5.6502278255        7.0996250142       10.4426973324
  H         5.1380637799        5.6991349267       11.3020592527
  C         3.4592626264        6.7450079520       10.4853093714
  H         5.9970924281        6.1554384065       30.1330720347
  H         5.1119408665        7.1999502202       31.1991702377
  C         6.9753811987        6.5309700244       32.0582198636
  H        -8.6939261174       10.5706131193       24.3840825490
  H        -8.1714355687        9.0342467303       24.9023533647
  C        -9.3742976693       10.0506109671       26.2723837649
  S        -3.3187532169       14.1906669391       36.7709941000
  C        -3.2282501636       16.7940415065       37.3137220018
  H         2.9658376104        5.7780494710       10.6054800476
  H         2.8297354513        7.4093675258       11.0316401574
  H         3.2545130169        7.1393108469        9.4900087139
  H         6.7586183882        5.4878920017       32.3991683269
  H         6.9178410070        7.3053318915       32.8124957915
  H         8.0161119757        6.5464420468       31.8226010020
  H       -10.2127779649        9.5836040813       25.7276417862
  H        -9.7315499239       11.0652666892       26.3731432088
  H        -9.0446813617        9.5647935797       27.2180993653
  C        -3.8646628102       14.9145463449       38.3131014277
  N        -3.6117551442       16.2360284951       38.4014080823
  O        -3.0428855026       18.0087450220       37.1442863616
  S        -4.5500419715       13.9262777032       39.6028303531
  C        -3.8870112018       17.0742645624       39.5839267176
  H        -4.0889698967       18.1000249934       39.3911948569
  H        -4.7859282825       16.7381207913       40.0588442649
  C        -2.7682683641       16.8856972517       40.6053982036
  H        -1.9146870978       17.5619523639       40.3865611853
  H        -3.2764811171       16.9859290153       41.5819410834
  H        -2.3468701745       15.8293230136       40.5904325559
