352
 i =    74900, time =    74900.000, E =        25.4573375472
  H        11.9957097772        6.9819933628       31.9163802658
  C        11.8070382010        5.9288562857       32.0057155731
  H        12.8320510782        5.4707016769       32.1008395627
  C        11.1156453553        5.4329767586       30.7040863063
  C        11.0375996122        5.5839533305       33.2373879993
  C        11.9131264844        5.6765202884       29.3889160204
  H        10.7825556334        4.4013665288       30.7554237027
  H        10.1922346391        6.0305612785       30.6608365911
  H        11.4108487211        4.5828437359       33.4628864716
  H        11.2071477856        6.0908372579       34.1203210512
  H         9.9634217632        5.6792906880       33.2115021201
  C        11.2833140084        5.0684250091       28.1849292780
  H        12.9309751387        5.3014430358       29.5482941030
  H        11.9653074635        6.7472324023       29.1877956205
  C        10.3066979421        5.9402593864       27.5167400918
  H        12.0783424864        4.8210284525       27.3968620841
  H        10.7537687938        4.1176910379       28.4458118463
  C         9.4673836836        5.0679171850       26.6288915753
  H        10.8305058184        6.5394257282       26.7705382565
  H         9.6578833164        6.6386729818       28.1337756837
  C         8.3421389600        5.9541689320       25.9998777518
  H        10.0652842580        4.5431608057       25.8285022571
  H         8.9759337454        4.2833106118       27.2925673042
  C         7.1555356199        5.1097963390       25.3218322688
  H         7.9698534797        6.6215201590       26.7298926400
  H         8.7541818273        6.5718901387       25.1914083414
  C         6.8003580264        3.7258771515       25.9304270707
  C         7.7279163982        4.3932153798       24.1128904057
  C         5.9438098945        5.8847349547       24.8604037315
  C         7.0974220301        2.6812320624       25.1095277848
  C         6.3700449070        3.3949076234       27.2121549465
  C         7.6786216369        3.0479296206       23.9350321601
  C         8.2025198855        5.1303519475       22.9732406112
  H         5.4035975698        5.4171184919       23.9797442458
  H         6.3366144198        6.8789576970       24.4299934335
  C         5.0229927715        6.3549978823       25.9750668860
  S         6.9147488181        1.1599586085       25.9154457106
  C         6.2863049544        2.0257867672       27.3055219978
  H         6.3534765016        4.1873015920       27.9606377749
  C         8.1232149547        2.4482502749       22.8261938312
  H         8.3901904080        6.1628026504       23.0264665599
  C         8.6696281772        4.5257373921       21.8706902790
  H         5.4872586566        6.2598272870       26.9586145478
  H         4.9136640554        7.4064395920       25.8086368788
  C         3.5265130035        5.8371646157       25.9306448265
  C         5.9574166461        1.2887495476       28.5527823272
  C         8.6809909773        3.2059270342       21.7656943096
  H         7.9738855507        1.3399920823       22.7725162712
  C         9.0929685095        4.8784344491       20.5773224138
  H         3.5642084470        4.7861180035       25.9325182329
  H         3.0082174466        6.1968704149       25.0086286992
  C         2.6199285391        6.3350354204       27.1725192861
  C         6.0985528784       -0.1256154875       28.7988475999
  C         5.4939570049        2.0856235644       29.7141125443
  C         8.9514255820        2.5052784443       20.4678729758
  C         9.2452008760        3.7926948400       19.7683241759
  S         9.4255319730        6.3631174328       19.7916862820
  H         1.9381022952        7.0761533064       26.7766984439
  H         3.1920855925        6.7389306874       27.9607084549
  C         1.7088366078        5.2683296826       27.7694412384
  N         6.5053945892       -1.1122029816       27.8961510224
  C         5.7860304488       -0.6941320359       30.0508467304
  C         5.3679287248        1.5172645352       30.9218118105
  H         5.3702882224        3.1303934252       29.5526156376
  C         7.6966781595        1.8916109323       19.8380407818
  C        10.2674169854        1.6968578720       20.5258182003
  C         9.4816809338        4.2460215618       18.4845617927
  C         9.7164598081        5.5416906344       18.3070780059
  H         0.9704262894        4.8927129987       27.0934601839
  H         2.3843681828        4.4427097849       28.0449231710
  C         0.9078218492        5.8530124888       28.9551741744
  S         6.2686890484       -2.5576573832       28.5207336878
  N         6.0075026822       -2.0811875008       30.0621035991
  C         5.4330181418        0.0687197129       31.1863728617
  H         5.1808806281        2.2124556992       31.7503873691
  H         7.4257368948        0.9363559254       20.3835483365
  H         7.8831324278        1.6786019060       18.8179724792
  C         6.4660446507        2.8384569288       19.8176277950
  H        10.4714165550        1.2362713694       19.5523423405
  H        10.1500453680        0.9319857009       21.2282200946
  C        11.5115604985        2.5457871095       20.8246455331
  H         9.5092430036        3.4982925575       17.7509063400
  C         9.9604925025        6.2957887731       17.0022052849
  H        -0.1682783984        6.1677050696       28.8488595990
  H         1.4703078156        6.7034534912       29.3727472702
  C         0.8976174896        4.8440323929       30.1084966183
  C         5.0961868711       -0.5777247300       32.3857507251
  H         6.5472753827        3.5053682447       19.0008622044
  H         6.3256452853        3.3830926935       20.7371817128
  C         5.1059504793        2.1568001826       19.5596076923
  H        11.2383021596        3.2524566948       21.6086948202
  H        11.7816203517        3.1965553541       19.9622949079
  C        12.7080524751        1.6775117601       21.1797384653
  C        10.0066225047        7.6703355111       16.8674853250
  C        10.2726164786        5.5233424159       15.7412299882
  H         0.0203861476        5.1334037233       30.7268153555
  H         0.6884164403        3.8046770320       29.8059334082
  C         2.1265479378        4.9131453599       31.0006649651
  H         5.3629780691       -1.5836591948       32.3291455113
  C         4.7332972647       -0.1068754628       33.6585557175
  H         4.2479544823        2.6926659257       19.9964832325
  H         5.2422511458        1.2512302911       20.1209408291
  C         4.8003891031        1.6888872466       18.1409247215
  H        12.4421198832        1.0692128398       22.0581925221
  H        12.9201994335        0.9782880528       20.4109385086
  C        13.8476988531        2.6369869113       21.6123965676
  N         9.8025313104        8.6382917117       17.8633882423
  C        10.3524427352        8.2560416496       15.6529368035
  C        10.4591722003        6.0937012223       14.5564339639
  H        10.3714522631        4.4539822067       15.8982644536
  H         2.1160221755        5.7074622615       31.7396973535
  H         2.4327497774        3.9599958963       31.4705062555
  H         3.1285053375        5.0349992401       30.4591937173
  S         4.4827928171        1.5399530699       34.1875155844
  C         4.6566177540       -1.1057227564       34.7888799758
  H         4.7621015300        2.6193339819       17.5576185769
  H         5.5879296828        1.0483454433       17.7960930645
  C         3.4240490216        0.9797881398       17.9611488866
  H        13.3885713847        3.2265731285       22.3574885510
  H        13.9985483264        3.3107306984       20.7615430553
  C        15.0532866231        1.9511672879       22.0366545866
  S         9.9552135723       10.1577445116       17.1819156679
  N        10.1622015437        9.6394410536       15.6256371074
  C        10.6384022565        7.5479882855       14.4891789284
  H        10.6750455207        5.5045239429       13.6952247346
  C         3.9380617685        0.8480473773       35.7809800094
  N         4.1097825441       -0.5088308303       35.8550431339
  O         4.9872750251       -2.2876172224       34.5960376202
  H         3.2424421991        1.0378498917       16.8960601207
  H         2.6402325233        1.6081674782       18.4569789151
  C         3.4207206841       -0.4057480585       18.5731507324
  H        14.6994459093        1.0699900517       22.5831989031
  H        15.6354328517        1.6884004084       21.1869954222
  C        15.9738038640        2.6959128215       23.0085569426
  C        11.0742417607        8.2598490062       13.2998391610
  S         3.5079225533        1.6158139797       37.3056749337
  C         4.0801287223       -1.2094887533       37.1108093928
  H         4.1608639348       -0.9747374015       18.1896155701
  H         3.5433755629       -0.3128675272       19.6352076487
  C         2.0641745041       -1.0250469673       18.2069311491
  H        15.5194617170        2.7016906431       23.9316554268
  H        16.2004109581        3.7199277483       22.7396010955
  C        17.2525947670        1.9292737104       23.2085590147
  H        10.7041410490        9.2041937336       13.3425280069
  C        11.5791030973        7.8926304758       12.1025234483
  H         3.3148666506       -0.8870534815       37.7874532795
  H         4.0291433240       -2.3287071026       36.9280681758
  C         5.3803148825       -0.9944152202       37.8562996073
  H         1.3507733415       -0.2417733188       18.4793866482
  H         1.7707525059       -1.8879570370       18.8292118953
  C         1.8636700395       -1.4080267797       16.7974057124
  H        17.8189832417        2.3081583113       24.0610316209
  H        17.1512463719        0.8836871486       23.5289681710
  C        18.1606239289        1.9676302649       22.0670347231
  S        12.3787808126        6.4714955865       11.7391012433
  C        11.6701461944        9.0237826746       11.1104932475
  H         6.0912815327       -1.8163166318       37.5739890029
  H         5.8647372977       -0.0260364692       37.6522571975
  H         5.2306502935       -1.0029571173       38.9255340615
  H         1.8135957554       -0.5684684401       16.1363689923
  H         1.0464968511       -2.0980772143       16.6341547774
  H         2.7398534694       -2.0387910423       16.4483889724
  H        19.1815948704        1.7660285971       22.4185794369
  H        18.2363535352        2.9853959936       21.6968635130
  H        17.9709016511        1.2841499486       21.1487950925
  C        12.6844662110        7.2550441810       10.1304643339
  N        12.3769591576        8.5930270778       10.0559820410
  O        11.3066955561       10.2205713765       11.2636286932
  S        13.3367145046        6.4768198851        8.6404986566
  C        12.6004668592        9.5480489231        9.0011233669
  H        12.7796658211       10.5257855461        9.3727659254
  H        13.5658174813        9.4904760461        8.3747166988
  C        11.4568533462        9.5183042589        7.9345212874
  H        11.8814632438        9.8314370090        6.9490256627
  H        11.0861235708        8.4612492366        7.7634528775
  H        10.5887787342       10.1828293384        8.1573177071
  H        -3.4218106914       15.0875557806       16.2107855418
  C        -3.3868109931       14.0318041609       16.3470285005
  H        -4.3734052897       13.6865067465       16.6203026494
  C        -2.4470721936       13.7092339281       17.4580752572
  C        -2.9581807791       13.2278723823       15.0937337006
  C        -3.0559091046       13.6563268645       18.8521440448
  H        -1.9165512664       12.7928626416       17.3051631960
  H        -1.6912034051       14.5119664899       17.3963974891
  H        -3.0542446951       12.1494496334       15.4116608634
  H        -3.5045844909       13.4688543633       14.1765093747
  H        -1.9552884442       13.3879989020       14.8488673475
  C        -2.0065039213       13.1149822712       19.7853161982
  H        -3.8250589695       12.9017677716       18.8873010812
  H        -3.3441648323       14.7122690783       19.1166869845
  C        -2.4289267059       13.2170809094       21.2037063079
  H        -1.8548278134       12.0274003524       19.5869103950
  H        -1.0492106426       13.6761046106       19.6612424808
  C        -1.4787544573       12.6010902150       22.2256565212
  H        -3.3278307379       12.5891751017       21.1365147595
  H        -2.8038014208       14.1578059798       21.4298532760
  C        -0.3557189283       13.5188776179       22.6519109847
  H        -2.0761887206       12.4444234112       23.1112621078
  H        -1.0500946756       11.6595665739       21.9135653496
  C         0.9585375922       12.9482890585       23.3705328759
  H        -0.1534825028       14.0392151145       21.7412404976
  H        -0.8124649365       14.2236993912       23.3629265014
  C         1.3936861555       11.6096146815       22.6416513625
  C         0.6829437769       12.1827608216       24.6363839962
  C         2.1478586412       13.9611850279       23.4196842067
  C         1.1065467615       10.4815880377       23.4142899203
  C         1.9270386211       11.2811277389       21.4045170237
  C         0.7253220264       10.8554052290       24.7080201228
  C         0.2879163613       12.8648011945       25.7906154075
  H         2.1376046947       14.6087306742       22.4853667642
  H         2.0227670174       14.6171077457       24.2705770393
  C         3.5347295632       13.3231236770       23.5844610863
  S         1.5021838003        9.0531285097       22.6298222212
  C         1.9539263186        9.9291491439       21.2066269274
  H         2.0776703670       12.1032443011       20.6999287777
  C         0.3046532909       10.2506378329       25.8613844196
  H         0.2061054814       13.9627724286       25.8031346715
  C        -0.1660666829       12.2258080768       26.9354610964
  H         3.7051122569       12.6640948752       22.7158973263
  H         3.6474286536       12.8152565076       24.5854840836
  C         4.6106876646       14.4826482204       23.5697421443
  C         2.3365474754        9.2991150670       19.8665735247
  C        -0.1132192899       10.8846139401       27.0160929174
  H         0.3397220491        9.1875196392       25.8916543421
  C        -0.6524739422       12.6194485724       28.1741498442
  H         5.3407749389       14.3614478322       24.4227706554
  H         4.1468269542       15.4422083505       23.6746840496
  C         5.4424096438       14.5086618203       22.2767485021
  C         2.4078245669        7.9096034462       19.6063365036
  C         2.6714594193       10.1478361583       18.6853466945
  C        -0.5223993603       10.1396174591       28.2472269214
  C        -0.8573989060       11.5338823792       29.0006310663
  S        -1.0644722479       14.0717045452       28.9728614233
  H         6.1270896723       15.3406994288       22.5254352641
  H         4.9109269118       14.9050693755       21.4582522646
  C         6.2161300721       13.2854656993       21.9636206574
  N         2.2924889575        6.9245625012       20.5777064187
  C         2.7410563829        7.3826530978       18.3733071509
  C         2.9808919129        9.6193333613       17.4768560407
  H         2.7001230892       11.2047928704       18.7628743077
  C         0.6113712894        9.2422915124       28.8811835103
  C        -1.8560002030        9.4217607455       28.0271545416
  C        -1.2498886988       11.8916840022       30.3429268660
  C        -1.4428466232       13.2494642422       30.3954015525
  H         6.6494756129       13.0364216168       22.9786643479
  H         5.7491797279       12.3600630964       21.6011687582
  C         7.3036877616       13.5112174283       20.8982317052
  S         2.3070110399        5.4670372103       19.8895741004
  N         2.7534722231        5.9760723972       18.4086384683
  C         3.0660962178        8.1546057461       17.2141349552
  H         3.3126886461       10.2887362677       16.6947775689
  H         1.0671434797        8.4541864150       28.2378904214
  H         0.0306144652        8.7632940044       29.7227191420
  C         1.7852361649       10.0830204431       29.4073997026
  H        -1.5660618030        8.5051401026       27.6012488962
  H        -2.2993263168        9.1781050644       29.0201885247
  C        -2.8531833532       10.0454960333       27.0329758843
  H        -1.3654317868       11.1672337349       31.1011129379
  C        -1.7996951323       13.9257301416       31.6868482726
  H         7.9629076617       12.7404491439       21.0241560208
  H         7.8106618646       14.3936832349       21.1876362523
  C         6.7308430140       13.7163719298       19.3965506302
  C         3.3107866919        7.6013969834       15.9443583718
  H         2.2121696559       10.6269772363       28.5711060335
  H         1.3803989124       10.7302107832       30.1508033966
  C         2.8406059587        9.1838939667       30.1376450338
  H        -2.3382018979       10.1500845960       26.0366792052
  H        -3.1253895967       11.0163081059       27.5272357465
  C        -4.1083333636        9.2151912542       26.9337934440
  C        -1.8731239963       15.3063468513       31.8651794691
  C        -2.0919309735       13.0807585870       32.9064646827
  H         5.9799536744       12.9630888945       19.1693429408
  H         6.1062817840       14.6008695587       19.3424201452
  C         7.7063781038       13.5669838957       18.2503149495
  H         3.2217516135        6.5709391463       15.9984983390
  C         3.7203879590        8.1531697060       14.7506218483
  H         3.2532859337        8.4302993996       29.5141465426
  H         2.4849936387        8.7727254829       31.0163529252
  C         4.0110006111       10.0222408946       30.3704280757
  H        -3.9887336101        8.1945529176       26.6341797321
  H        -4.5843123466        9.2460508884       27.9129959714
  C        -5.1275086553        9.9643541502       26.0109575936
  N        -1.6252755012       16.2836633422       30.8731473731
  C        -2.1664342410       15.8708964224       33.0965470750
  C        -2.3386119443       13.6381380812       34.1528317410
  H        -2.0651104759       12.0136756442       32.8074892656
  H         7.3688394663       12.7591078323       17.5957295207
  H         7.7109362142       14.5805573265       17.7385972423
  H         8.6830185794       13.2798087786       18.6728172538
  S         4.0209255633        9.7823991684       14.4048069349
  C         3.7101960916        7.2532347269       13.6072445222
  H         4.1821831932       10.6960298933       29.5373220382
  H         3.7032479496       10.7569762382       31.1087509179
  C         5.2999061528        9.4466701524       30.8794392968
  H        -4.8989378565        9.7738507856       24.9660399717
  H        -4.8923846931       10.9929680464       26.2339562608
  C        -6.5113326375        9.6024254489       26.1793524363
  S        -1.6556915251       17.7862296116       31.5787870050
  N        -2.0393792243       17.2948640909       33.0610751796
  C        -2.4207976188       15.1292278988       34.2935178864
  H        -2.5198526411       13.0240189848       35.0100772034
  C         4.4439079758        9.2305851550       12.6920350901
  N         4.2763334354        7.9050231017       12.5896634237
  O         3.7094260774        6.0271473145       13.6853448140
  H         5.2078251678        9.0150578538       31.8353198540
  H         6.0664071150       10.2950414528       30.9596827558
  C         5.8970966458        8.3479652077       29.9864938584
  H        -6.7971699179        8.5508430296       26.1358973796
  H        -6.6279175214        9.7844972701       27.2308441818
  C        -7.4214821013       10.4575456585       25.3715656539
  C        -2.7478857161       15.8759499997       35.4842804015
  S         4.9830819097       10.2570527036       11.3421706753
  C         4.3753584959        7.1283739215       11.2651164651
  H         5.3211870722        8.0925545084       29.1267019209
  H         6.8924666793        8.5973403917       29.5924102399
  C         6.1291359369        7.0711079481       30.8263614757
  H        -6.9279987824       10.7769816716       24.4854408822
  H        -7.5583621982       11.2929908068       26.0948181324
  C        -8.7217325562        9.8130947320       25.0472422288
  H        -2.4964728397       16.8998155820       35.4201958931
  C        -3.2662853247       15.4878954621       36.7348223253
  H         5.2415695742        7.4894927494       10.7119069031
  H         4.6173113168        6.0681032702       11.4621532067
  C         3.0760585383        7.1363201698       10.4742579860
  H         5.3989270006        6.7799207279       31.5545042434
  H         7.0501671821        7.2294929471       31.4287955013
  C         6.3267115079        5.8608498948       30.0757761633
  H        -9.3389177824       10.5005077719       24.4540077694
  H        -8.4406000660        8.9162473961       24.5094603996
  C        -9.6210628739        9.5288104947       26.2585820225
  S        -3.7644688304       13.8969792294       37.1633543245
  C        -3.3014184583       16.5287752821       37.7961454316
  H         3.2100466405        7.8300920868        9.7137136950
  H         2.8332638856        6.1779024388        9.9525778870
  H         2.2074094817        7.4310210950       11.1142519581
  H         5.3976377025        5.4313089973       29.7764685893
  H         7.0448213878        5.2312022824       30.6060684841
  H         6.9010065333        6.1539818946       29.1285117132
  H       -10.4827212055        9.0342030386       25.9486753487
  H        -9.9047996785       10.4646585477       26.7385451260
  H        -9.1091392862        8.8906133513       26.9420412117
  C        -4.0088948356       14.6340514254       38.7752880992
  N        -3.6637100796       15.9196280279       38.9481358553
  O        -3.0667145856       17.7497804905       37.6323180525
  S        -4.9692154274       13.8584843655       40.0177649418
  C        -3.7429097874       16.6629797400       40.2180938800
  H        -4.5884270655       17.3498817594       40.1737330259
  H        -4.0011303852       16.1055864825       41.0870798054
  C        -2.4922281517       17.2967128582       40.6340362254
  H        -1.6098906810       16.6789427833       40.6154682572
  H        -2.2089943011       18.2165242462       40.1335960575
  H        -2.5595658196       17.5521754100       41.7314954300
