352
 i =    77100, time =    77100.000, E =        24.9670343196
  H         9.8711333880        6.3626439119       32.7225697598
  C        10.8241945900        6.0753964241       32.3764504712
  H        11.3924389042        6.9303443800       32.7413522754
  C        10.9786622806        6.0584403603       30.8640612230
  C        11.2073352311        4.7462408148       33.0955930754
  C        10.2220082751        4.8991082299       30.1432339569
  H        10.8028098018        6.9967920728       30.3797942841
  H        12.0096003315        5.8982609814       30.6340156604
  H        10.4732732628        3.9443503566       33.0754724081
  H        12.1487980232        4.3406812297       32.6022296876
  H        11.5599856585        4.9712831728       34.1599182024
  C         9.3940133589        5.2938564090       28.9615818990
  H         9.6036174153        4.4829333457       30.9178043756
  H        10.9684849718        4.1188651993       29.8916439124
  C        10.2484634228        5.4151966502       27.6983279050
  H         8.5134803196        4.6329990079       29.0281438292
  H         9.0765761498        6.3645850848       29.0143452857
  C         9.4886489465        4.6637657482       26.4883672302
  H        11.2398429332        5.0085137743       27.7744875398
  H        10.4087601086        6.4831605939       27.4837123531
  C         8.2087673279        5.4272078289       26.1115886548
  H        10.1142471080        4.5102568521       25.5646003670
  H         9.2795462230        3.6114340536       26.8575644595
  C         7.0512467288        4.5127053008       25.4812721383
  H         7.7342989337        5.8450409576       27.0588618290
  H         8.3545557711        6.3152764939       25.4651381420
  C         6.8081341686        3.2411852545       26.2437292382
  C         7.5994927633        3.7914215934       24.3655488971
  C         5.6928570897        5.2450437440       25.1149872779
  C         7.0730826228        2.1175105380       25.4243158023
  C         6.2875563358        2.9205014112       27.4753319225
  C         7.6458311729        2.4533008221       24.2107554550
  C         7.9069492100        4.4573661900       23.1654129799
  H         5.1502177852        4.3719384096       24.6720387309
  H         5.7372226145        6.0204913110       24.3165125212
  C         4.9241687942        5.8013378733       26.3325086742
  S         6.6670213546        0.6326180026       26.2742527775
  C         6.2534847658        1.5442505605       27.6937222848
  H         6.2039707624        3.7336140145       28.2448737445
  C         8.0091817284        1.8207765510       23.0379299621
  H         7.8142522893        5.5175490395       23.0810024898
  C         8.3579836337        3.8319422863       22.0227678154
  H         5.0709448933        5.3111871792       27.2071663970
  H         5.2479900479        6.8732567941       26.4506348726
  C         3.4161120495        5.8350660929       26.0771254271
  C         5.8890925736        0.9009635856       28.9807874139
  C         8.4015369425        2.5264868380       21.9338547636
  H         8.0001012394        0.7597352130       22.9876735401
  C         8.6960311005        4.2345030027       20.8448803854
  H         3.0483703126        4.8050905899       25.7782526264
  H         3.2178567442        6.4133588973       25.1884013696
  C         2.5381761833        6.3154384628       27.2421486391
  C         5.9637488092       -0.4555564404       29.3125064838
  C         5.4208020167        1.7814240363       30.0918768476
  C         8.6536531441        1.8745841335       20.6365493136
  C         8.9278209299        3.1811579185       19.9892501930
  S         9.0154776729        5.7080137582       20.1413480244
  H         1.6793748413        6.9075918415       26.8496672092
  H         3.1814381030        7.0632685638       27.7665014962
  C         2.1636008547        5.1606674639       28.1966782085
  N         6.4445880291       -1.4649370028       28.4415318535
  C         5.6746658869       -0.9370944965       30.5734762399
  C         5.0474507358        1.2633547761       31.3299241300
  H         5.4571346352        2.9013651188       29.9283429250
  C         7.4445582084        1.1914449061       20.0241036339
  C         9.9677903596        1.0091687443       20.7611218563
  C         9.3259876681        3.5884368111       18.7144691622
  C         9.4457584810        4.9517656378       18.6570112444
  H         1.3336930607        4.5857319180       27.7592317709
  H         2.9505403634        4.4108966204       28.3128863717
  C         1.5880044628        5.8187781627       29.4855798672
  S         6.3866433135       -2.8155389813       29.2400354054
  N         5.8930264417       -2.2843919369       30.6907131163
  C         5.1710113083       -0.1996637036       31.6615101589
  H         4.7043368719        1.9413149518       32.1023828270
  H         7.0713208652        0.5574854175       20.8472197156
  H         7.7519768784        0.6491590533       19.1657641183
  C         6.1737069543        2.0422644090       19.6764334920
  H        10.3421792277        0.8039174712       19.7317136663
  H         9.9185191529        0.0958351796       21.3134615876
  C        11.1037000413        1.6917116675       21.6573505904
  H         9.5983453867        2.9146433779       17.8803622861
  C         9.7547077983        5.7750552435       17.3970898207
  H         0.5900232055        6.2596207612       29.2686923701
  H         2.2782290631        6.5717964778       29.8211830425
  C         1.3476017949        4.9440214143       30.6933713590
  C         4.9897653952       -0.8910483836       32.8914545603
  H         6.2258595536        2.6412896897       18.7552863882
  H         6.0369813369        2.6590172450       20.5394227550
  C         4.9421646095        1.3236655154       19.5175589239
  H        10.7984235390        1.6497594910       22.7561319533
  H        11.0906703347        2.7318042636       21.5106223627
  C        12.3943814618        1.0064573894       21.6385620671
  C         9.7654613669        7.1886687519       17.3081921601
  C         9.9949219388        5.0589702308       16.0806209967
  H         0.6845122850        5.4963814874       31.4354869948
  H         0.8515732978        4.0235924729       30.4139958373
  C         2.6012648970        4.7564536599       31.5088086719
  H         5.1352106438       -1.8989342647       32.8703750917
  C         4.8142056885       -0.5431464861       34.2056644738
  H         4.1422259209        1.9797470081       19.5832517449
  H         4.9006592424        0.5673886889       20.2791083187
  C         4.9450337765        0.5840200256       18.2284046875
  H        12.3474200659        0.1110613552       22.2740176140
  H        12.7233061616        0.7134706850       20.6260928040
  C        13.3089446249        2.0140103761       22.2480826254
  N         9.5351686669        8.0971821191       18.3439967883
  C        10.1300503499        7.8619187317       16.1937574659
  C        10.2730685975        5.7525148955       14.9364090522
  H        10.0524894998        3.9696393307       16.0601834724
  H         2.9479858329        5.6061800411       32.0400107375
  H         2.5656418908        3.9156820190       32.1537645766
  H         3.3787748807        4.5968480395       30.8360896795
  S         4.3855799997        1.0734566789       34.7344640844
  C         4.8189461611       -1.5447219106       35.3058819359
  H         5.4408312790        1.2540403965       17.4328967317
  H         5.6572906019       -0.2276086120       18.1627910649
  C         3.5775076894        0.2074493810       17.6388353994
  H        12.8049296428        2.3612429172       23.1079222491
  H        13.4302326726        2.8080700940       21.5897045619
  C        14.6376495755        1.4102794839       22.6840036516
  S         9.5855788688        9.6208601737       17.8567744077
  N        10.1901087917        9.2540983120       16.3460715866
  C        10.4012100807        7.2543362477       14.9349553046
  H        10.3856995850        5.1445184169       14.0612575621
  C         4.3731527786        0.3866613135       36.3788957578
  N         4.5252482826       -0.9725795392       36.4553095219
  O         4.9567493030       -2.7752370521       35.0706200606
  H         3.7611436694        0.0206110918       16.5809093707
  H         2.9254022180        1.0643280293       17.6859941926
  C         3.0070536181       -1.0130946570       18.4025712358
  H        14.4805360546        0.4615509182       23.1887237354
  H        15.1657453293        1.2112652160       21.7400192623
  C        15.4700062313        2.4115889853       23.4956182980
  C        10.7214447000        8.0812654249       13.8320003014
  S         3.8837418673        1.3669406383       37.7545429453
  C         4.6517431830       -1.6790376194       37.7575349214
  H         3.6300784113       -1.8819741940       18.1223425423
  H         3.0073774782       -0.9146777212       19.4664176934
  C         1.5728282454       -1.2154490981       17.9317805079
  H        14.9118060889        2.7554025778       24.3507566757
  H        15.7468138162        3.2118229964       22.8816991284
  C        16.7221859979        1.8369431720       24.0120912757
  H        10.4823773000        9.1094877126       13.9216793028
  C        11.2741322773        7.8665111579       12.5573171007
  H         4.2081583651       -1.0860481172       38.5560340817
  H         4.1558570968       -2.6432783203       37.5838701394
  C         6.0926776026       -2.0258328167       38.1132170740
  H         1.1744976253       -0.3766822362       17.4294218046
  H         0.9735271964       -1.4222454985       18.8236830957
  C         1.5704668984       -2.3995963842       16.9375124775
  H        16.8777852998        2.2243283183       24.9672083670
  H        16.6032289854        0.7444926286       24.2424344357
  C        17.9410610821        1.9896710842       23.0821423418
  S        11.8577011048        6.3639302407       11.9781628953
  C        11.4054009347        8.9928161567       11.6004617169
  H         6.4507467164       -2.8978039255       37.6310560521
  H         6.6485877891       -1.2351589509       37.6760623453
  H         6.3027464514       -2.0126128408       39.1845852558
  H         2.3809942117       -2.3269362335       16.1674492051
  H         0.6009119683       -2.5534166595       16.5113712938
  H         1.8756778042       -3.2795354021       17.5341750080
  H        18.3820339973        2.9523122421       23.3018791747
  H        17.7345172140        1.9211948880       22.0752430683
  H        18.7344293938        1.3263987433       23.2722480223
  C        12.2483411613        7.2382318265       10.4669300630
  N        12.0951275054        8.5584390045       10.4800052136
  O        10.9180045785       10.1083184801       11.8198739541
  S        12.7454705782        6.5102418076        8.9616818254
  C        12.0410470202        9.5292201425        9.3962189227
  H        12.1602711810       10.4951412809        9.7272442318
  H        12.8758133515        9.2601008967        8.6328420949
  C        10.6177272391        9.3154091953        8.6642306679
  H         9.9215054326       10.0068368125        9.0140841241
  H        10.6319062525        9.3591079184        7.5703512483
  H        10.3050531282        8.2851630678        8.7402049463
  H        -3.1203630973       15.3855709836       16.4885040819
  C        -3.0471559228       14.3644350729       16.6885675114
  H        -4.0669093120       13.8750855181       16.8099624605
  C        -2.1155916025       14.1357203002       17.9172374428
  C        -2.3926635291       13.5721780044       15.5913023102
  C        -2.7957763662       13.8323348413       19.1762782902
  H        -1.3805024751       13.3529439837       17.7368131940
  H        -1.4603624227       15.0185758385       18.0450973637
  H        -2.5580291619       12.5138966812       15.7021923053
  H        -2.7259523052       13.8924127217       14.6541860843
  H        -1.3727074632       13.8167975126       15.6128126462
  C        -1.9178040519       14.1591752826       20.3349191783
  H        -3.0764379363       12.7497714814       19.2034402541
  H        -3.7227462136       14.3726863862       19.3002305971
  C        -2.4112140301       13.6566917784       21.6659493940
  H        -0.9408762768       13.8047299467       20.0284727832
  H        -1.7349213594       15.1969959496       20.4386836145
  C        -1.4094039692       12.7219660154       22.2877047687
  H        -3.3359839189       13.0539415428       21.5762531792
  H        -2.7046952643       14.5028611624       22.2524624271
  C        -0.2253699112       13.5230748816       22.8676107567
  H        -1.7730652315       12.1253479807       23.0331665614
  H        -0.9809882358       12.0112086826       21.5079497872
  C         0.9842942293       12.7720745442       23.5027690306
  H         0.2336501919       14.1234378093       22.1108897805
  H        -0.4961255782       14.2598922421       23.5337573539
  C         1.3263358411       11.4050589356       22.8251933869
  C         0.5615099051       12.0963096305       24.7071951088
  C         2.2109124599       13.6740515909       23.7654694377
  C         1.1522680963       10.3322596116       23.6693920525
  C         1.7071879051       11.0261644623       21.5458616177
  C         0.6788413393       10.7707395215       24.8771779742
  C         0.0357093773       12.7577256874       25.7664371075
  H         2.3410407634       14.3680868832       22.9746285722
  H         1.9959300898       14.2624269664       24.6930244213
  C         3.4339168458       12.9014906039       24.2002189540
  S         1.4883644641        8.8471318615       22.9212559417
  C         1.9023379165        9.6710437318       21.4392126873
  H         1.6993499033       11.8307675521       20.8515195985
  C         0.2033536279       10.2024239757       26.0361390706
  H        -0.0889735300       13.7963781796       25.7082714481
  C        -0.3517706300       12.1913167582       26.9527963758
  H         3.7593313902       12.0573380771       23.6295731118
  H         3.2645358834       12.5554682766       25.2276795803
  C         4.5188483891       13.9685703076       24.2487167165
  C         2.4238866378        8.9267202146       20.1836218676
  C        -0.2934433487       10.9025202714       27.1447794372
  H         0.1964365293        9.1095416551       26.1941168750
  C        -0.8516323425       12.6013672135       28.1935977338
  H         5.3279629547       13.6834277379       24.9171059127
  H         4.0213448100       14.8097782283       24.5992269370
  C         5.2146499669       14.1254535943       22.8503222871
  C         2.2561748098        7.5467677376       19.8961981272
  C         2.9792686820        9.6936731427       19.0637105992
  C        -0.7015082040       10.2059006439       28.3430133674
  C        -1.0523164472       11.5174557075       29.0355970193
  S        -1.1848521811       14.0762837954       29.0011439555
  H         5.6365285221       15.1006737523       22.7522019291
  H         4.3960185186       14.0004120422       22.0628803874
  C         6.2384357450       13.0994911199       22.5441947007
  N         1.6916949721        6.6344787042       20.7751158739
  C         2.5415965985        6.9366656431       18.6915400670
  C         3.3573048331        9.0883540862       17.8285662318
  H         3.2437809397       10.7214293997       19.2766932378
  C         0.3837449154        9.2173717846       28.9308245222
  C        -2.0059875457        9.4399321626       28.0287671320
  C        -1.4379408686       11.8255712878       30.3139482360
  C        -1.4878377305       13.1746875521       30.4483258862
  H         7.0159363279       13.1563853974       23.3788391133
  H         5.7015053697       12.1610556893       22.6821566003
  C         6.9201316957       13.0609531004       21.1485232965
  S         1.5071395307        5.1598084996       20.0822915419
  N         2.1734917684        5.6267641544       18.6568709189
  C         3.0523307680        7.6931530053       17.5376259963
  H         3.8760177431        9.6513761055       17.0326651922
  H         0.7558314487        8.6374052441       28.0899562823
  H        -0.0467065944        8.5485720489       29.7483638832
  C         1.5082937678       10.0359346779       29.5803033430
  H        -1.7964276614        8.3925904311       27.6525461394
  H        -2.5605830499        9.2961467442       28.9617127414
  C        -3.0715733420       10.1360981189       27.1825157496
  H        -1.6227339540       11.0519435637       31.0942591671
  C        -1.7384741512       13.9780793841       31.7654013096
  H         7.6410172725       12.2165482934       21.0759002548
  H         7.5780256457       13.9608756530       21.0105853716
  C         5.9188786692       12.8754018129       20.0021498059
  C         3.2689055308        7.0406038516       16.3092249063
  H         1.9553674888       10.5420294753       28.7375504212
  H         1.1097995148       10.6769204684       30.4014176180
  C         2.5896986568        9.2365431527       30.2531748542
  H        -2.6420251731       10.5587546000       26.2838674442
  H        -3.1934150020       11.0643011460       27.7524659506
  C        -4.3473238655        9.3194823706       27.0244519943
  C        -1.8507427025       15.4032254805       31.8912578650
  C        -1.9069672581       13.2699999767       33.0827492486
  H         5.1697067347       12.1447035794       20.2875781521
  H         5.2858001778       13.7063258402       19.9644829192
  C         6.7796975987       12.7157923298       18.6912347921
  H         3.3250741456        5.9440658435       16.3416213359
  C         3.4090945019        7.4082477106       15.0321740440
  H         2.9641403161        8.5208110367       29.4490127536
  H         2.2084354657        8.6946783089       31.1264691240
  C         3.7906338688       10.0675419923       30.7127579253
  H        -4.3763206580        8.9253872792       26.0380128248
  H        -4.4284253189        8.4287942970       27.6419243728
  C        -5.4949305599       10.2958507036       27.0036131861
  N        -1.5200856794       16.3169837461       30.9250255039
  C        -2.1314865085       16.0506816549       33.1001726302
  C        -2.1768325629       13.9905610660       34.2425928827
  H        -1.9227163751       12.2193112933       33.1854005821
  H         7.5170613910       11.9550579223       18.8512440199
  H         6.1352811588       12.4054606184       17.8835488121
  H         7.2089724372       13.6246687054       18.3912970331
  S         3.5816958270        9.0173219787       14.3428443015
  C         3.5171475815        6.3517307097       13.9952059819
  H         4.2652480657       10.4203156329       29.8810089824
  H         3.3469297337       10.8856852516       31.3044949793
  C         4.7696391742        9.3007488544       31.5859351858
  H        -5.1986941344       11.0727205087       26.3868933622
  H        -5.6417234129       10.7241883542       28.0063627307
  C        -6.7141413552        9.5727532982       26.4455912879
  S        -1.4174987941       17.8203477033       31.5199192341
  N        -2.0262561964       17.4538130045       32.9942464347
  C        -2.3858325747       15.4094244372       34.3349072903
  H        -2.1240958652       13.4762958601       35.1990964712
  C         3.8730690921        8.2568174105       12.7832312489
  N         3.8680255354        6.9024257150       12.7701101051
  O         3.2673694487        5.1496310883       14.2530911778
  H         4.1315979955        8.8167174170       32.3176816867
  H         5.3887631543        9.9482130572       32.1600786910
  C         5.6148658358        8.2423028305       30.9710601167
  H        -6.4898939494        8.5399347516       26.1734799917
  H        -7.3686303751        9.4318126535       27.3077994278
  C        -7.3193671495       10.3997559099       25.3417781382
  C        -2.5923672450       16.1411094550       35.5439252938
  S         4.2896054633        9.0437465404       11.1790458246
  C         3.9290720253        6.0208505940       11.6071122929
  H         5.2579295635        7.8013127233       30.0475257829
  H         6.6111929196        8.6961979260       30.7604578241
  C         5.9056088764        7.1791917611       32.0667877673
  H        -6.5607837493       10.6991116845       24.5752958626
  H        -7.5890389485       11.4492598999       25.7315131544
  C        -8.5565102603        9.7575148856       24.6845707050
  H        -2.2389989091       17.1826862260       35.5109119899
  C        -3.0693008775       15.7663878412       36.8002430361
  H         4.6351926857        6.3485964451       10.8662607427
  H         4.2264719405        5.0573768067       11.9368235123
  C         2.5079655083        5.9205209156       10.9519803038
  H         4.9275694147        6.8397174704       32.5730888952
  H         6.5093558318        7.6435205421       32.8715759354
  C         6.6796909871        5.9781755516       31.7083029042
  H        -8.8281696159       10.4007218602       23.8430521256
  H        -8.2380544723        8.7928960194       24.2286080708
  C        -9.6769439033        9.4545354416       25.6280094699
  S        -3.5299617271       14.1562908540       37.3838730779
  C        -3.2151929261       16.8005975205       37.8121578891
  H         2.5058460831        5.1891319425       10.1413895167
  H         1.7163528421        5.6419997041       11.7085267716
  H         2.2619839267        6.8185729435       10.3861080037
  H         6.3126903124        5.4102881792       30.8485721725
  H         6.5228433834        5.3019501567       32.5547745827
  H         7.7073281578        6.1611607369       31.4991937371
  H       -10.0036199182       10.2662613285       26.2315764371
  H        -9.3188720578        8.6448494475       26.2765516933
  H       -10.5946046677        9.0780247035       25.1763647380
  C        -3.9057673464       14.9419384707       38.9044426446
  N        -3.7564086650       16.2916065005       38.9496775746
  O        -2.9451248393       18.0007300810       37.6561071088
  S        -4.6094534918       14.2476043499       40.3397705502
  C        -3.9177872547       17.1626031542       40.1041510457
  H        -3.9070985454       18.2541501843       39.8292422319
  H        -4.8127343183       16.8701268631       40.7457416800
  C        -2.7097537542       17.0256612354       40.9931728204
  H        -1.8477177498       17.5107357944       40.4408081726
  H        -2.7770571401       17.5277305060       41.9849273689
  H        -2.3553703583       16.0165161693       41.1166050375
