352
 i =    36700, time =    36700.000, E =        25.1175218807
  H        11.3618174918        7.2903524521       32.3117438381
  C        11.3427943987        6.1944139038       32.3076123553
  H        12.2285046105        5.8322584655       31.8226450498
  C        10.1675459365        5.5829594012       31.5406483195
  C        11.3496087732        5.7393800886       33.7735309141
  C         9.9789922673        6.2331325359       30.2103143996
  H        10.3585503650        4.5213613116       31.5048607061
  H         9.2822212882        5.7250042841       32.1043943704
  H        11.4033038345        6.5786500420       34.4417354262
  H        10.4396877188        5.1860948194       33.9867284848
  H        12.1540368768        5.1433440190       33.9742006404
  C        10.0708768683        5.1915039535       29.0252789945
  H        10.7916930417        6.9429431223       30.1345556362
  H         9.0100980123        6.7499425307       30.1849660354
  C        10.4637011938        5.7654960359       27.6536951724
  H        10.7363065200        4.3813950842       29.2152165899
  H         9.1068875774        4.7682281299       28.9348247458
  C         9.6062722739        5.1708769216       26.5278625099
  H        11.4315495554        5.4381520119       27.2673574238
  H        10.4477431928        6.8709918880       27.6566122337
  C         8.4097799182        6.0323872399       26.1913355907
  H        10.3110996088        5.0211455758       25.7504792806
  H         9.2559497682        4.1919816337       26.7796681425
  C         7.1999504254        5.2279184829       25.6353078479
  H         8.1314979046        6.5287786199       27.1063046093
  H         8.7611970055        6.7652644778       25.4538619757
  C         6.8536942577        3.9288149412       26.3459944423
  C         7.5925098846        4.5625109542       24.3389083782
  C         5.8861137087        6.0477020533       25.5178154796
  C         7.0140006193        2.7825244333       25.4963123586
  C         6.4126573116        3.5633660672       27.6232642636
  C         7.4842187591        3.2074897788       24.2878678756
  C         7.9952758334        5.2186299720       23.1590831286
  H         6.0263237370        6.8884764513       24.8306457587
  H         5.7794149417        6.4674020947       26.5515656485
  C         4.6159855647        5.2437068353       25.1407073447
  S         6.7656762783        1.3525797316       26.4257138931
  C         6.3393721687        2.2066326497       27.8782366998
  H         6.3644095109        4.3373766356       28.3384671662
  C         7.8457649061        2.6222208105       23.1173122390
  H         8.1296227758        6.2763836268       23.2398441237
  C         8.2988234340        4.5765564380       22.0138070200
  H         4.8000162348        4.9911692177       24.0932125925
  H         4.4595424130        4.3187846349       25.6345006575
  C         3.3051188200        6.0623617979       25.2211559086
  C         5.9357277574        1.5464682786       29.1807298413
  C         8.2934561779        3.2303816384       21.9245032671
  H         7.8499587806        1.5370737229       23.1214696111
  C         8.6591054307        4.8674673652       20.7614857662
  H         2.4441557495        5.5161209494       24.7997447059
  H         3.4115279311        6.9439435875       24.6572327480
  C         2.8904493341        6.3746510134       26.6505700349
  C         5.8749296274        0.1511237140       29.4190550746
  C         5.3316241617        2.3069084648       30.3521152430
  C         8.6185171355        2.4441178026       20.7202345388
  C         8.8718430211        3.7498446503       20.0136287168
  S         9.0074611059        6.4022298031       19.9773677800
  H         2.0214859328        6.9719413487       26.5436755718
  H         3.6798889254        6.8874262135       27.2090590561
  C         2.4869650297        5.0846182511       27.3964315013
  N         6.2308125511       -0.8404848629       28.4390235994
  C         5.5099034187       -0.4122162132       30.6096538676
  C         5.0680297300        1.7916860230       31.6289683982
  H         5.1933146819        3.3441682667       30.1515707229
  C         7.2661863047        1.7751553437       20.2434699810
  C         9.8982111612        1.6308839227       20.8383147056
  C         9.1883009096        4.1621108162       18.6639771920
  C         9.4278561040        5.5305233239       18.4916400660
  H         2.0949776597        4.2235590672       26.7593423463
  H         3.4061690392        4.7464535840       27.6970239238
  C         1.4339973376        5.2874569656       28.5000824544
  S         6.1838621920       -2.3371288539       29.1729966150
  N         5.5101800133       -1.7843400100       30.5452794002
  C         5.1305819495        0.3037598744       31.7958603707
  H         4.8230067588        2.3798380586       32.4906282260
  H         6.8435674065        1.0743440677       21.0097175093
  H         7.6463752188        1.1895745392       19.3999315183
  C         6.1751609720        2.7783644864       19.8297987546
  H        10.0867180942        1.2590556937       19.8337397678
  H         9.8056926414        0.8046768816       21.5014818973
  C        11.2501249117        2.3717153400       21.2752455507
  H         9.2143284161        3.4746921272       17.8812220726
  C         9.8010311462        6.2078331978       17.1772216901
  H         1.0611458591        4.3367265614       28.9733626887
  H         0.5541646881        5.8081066284       28.0924300262
  C         1.9441015320        6.2072454296       29.6567753035
  C         4.8982699099       -0.4020620132       33.0193611204
  H         6.5470435683        3.3876458893       18.9882450161
  H         5.9783637604        3.4280223976       20.6475699148
  C         4.8712882607        2.0818542916       19.3068442685
  H        11.2272420784        2.7294253323       22.3405487151
  H        11.4089636722        3.1607306279       20.5908574220
  C        12.4501690398        1.4625439325       20.9829057758
  C         9.9415555696        7.5402946504       17.0470022512
  C        10.1822666039        5.4319450508       16.0316583621
  H         2.9807461883        6.5242027691       29.4480130108
  H         1.3679652708        7.0594613705       29.7307362276
  C         2.0050084042        5.4940329019       31.0130769943
  H         5.3353476000       -1.4043922906       32.9790588951
  C         4.4945343756        0.0320071737       34.2892070951
  H         4.0754267097        2.4803816958       20.0072325000
  H         4.9075094222        1.0102354298       19.5375815314
  C         4.3193348756        2.4634030288       17.9437935013
  H        12.4595879378        0.6116328176       21.6665548973
  H        12.3508009875        0.9612056984       19.9904924168
  C        13.7480123612        2.2052209517       20.8285513838
  N         9.6491654308        8.5250834909       18.0341555499
  C        10.2412409298        8.1658712872       15.8388947119
  C        10.5030458178        5.9910776726       14.8152120230
  H        10.1147230770        4.3413199447       16.0897358129
  H         1.0813228575        5.1493031910       31.4570182953
  H         2.6738966576        4.7170736388       31.1456435874
  H         2.4218251386        6.2210107860       31.6997683089
  S         4.0464818722        1.5541140023       34.8342278480
  C         4.5635533162       -1.0308554194       35.3290772864
  H         4.0625985907        3.4608119647       17.9967989588
  H         5.0098025304        2.3436308413       17.1041192254
  C         2.9523835327        1.8086420146       17.6302810182
  H        13.5432969120        3.0784342982       20.1994847805
  H        14.4934906931        1.5310336845       20.3815116840
  C        14.4018388898        2.7308233305       22.1636634357
  S         9.8096361874       10.0250329357       17.3831985856
  N        10.2087115993        9.5187177920       15.9135044676
  C        10.6065466534        7.4286736780       14.6876273753
  H        10.7879806762        5.3622958348       13.9941283250
  C         3.9452606403        0.7980008091       36.4442052529
  N         4.1493049948       -0.5543434150       36.5267011306
  O         4.8846263887       -2.1885720819       35.1879653363
  H         2.5133231041        2.0571905646       16.6767852694
  H         2.2925712418        2.2629579622       18.3725774224
  C         3.0178485834        0.2532442940       17.8693461755
  H        15.1703985693        3.3779093431       21.8456903700
  H        13.7073653393        3.2205629543       22.8055769029
  C        15.1130790190        1.5683015329       22.9433009986
  C        10.9111525590        8.0637211090       13.4474384392
  S         3.3392133150        1.5997175236       37.8515069098
  C         4.2864258322       -1.3453508975       37.7231062108
  H         4.0761832089       -0.0665010184       17.6402099605
  H         2.7733417035        0.0612708712       18.9139385116
  C         2.0790584332       -0.5799943990       17.0519426876
  H        15.0127312087        0.7092675171       22.2956301800
  H        14.5054811441        1.4481377440       23.8274120969
  C        16.5687794299        1.7857402544       23.3912269585
  H        10.5286983591        9.0448554010       13.4139841058
  C        11.3942139284        7.6597858516       12.2226592895
  H         3.7080114683       -0.9950540607       38.6063305235
  H         3.6895583066       -2.2400277002       37.6520848775
  C         5.7043064774       -1.6395623091       38.2517270761
  H         2.2606728086       -0.4010675038       15.9580297816
  H         1.0959832230       -0.1636189579       17.1699077767
  C         2.1350989961       -2.0281579992       17.5131583963
  H        16.6587046471        2.6613015485       24.0644985976
  H        16.8206360610        0.8378289228       23.9280257600
  C        17.5065778679        2.0955896401       22.1990668134
  S        11.8517368243        6.1228802263       11.8028292322
  C        11.4175574466        8.6150677540       11.1262191292
  H         5.6707387554       -2.6211983631       38.6702376519
  H         6.4135757073       -1.7246412628       37.4219368507
  H         6.1720415703       -0.8248941535       38.8752694917
  H         3.1228130399       -2.4215663113       17.4667926073
  H         1.5457868747       -2.6655157490       16.8629653254
  H         1.6880055603       -2.1264760828       18.4850850619
  H        18.4886080588        1.8680861618       22.5855646213
  H        17.3339579079        3.0789314119       21.7344813549
  H        17.3083755198        1.4123841119       21.3471989398
  C        12.2682927376        6.7246595934       10.2082092112
  N        12.0259420542        8.0669027454       10.0523515330
  O        10.8850659618        9.6883904169       11.2007045575
  S        12.8261286264        5.7603843482        8.8211357212
  C        12.1394045057        8.7346852708        8.7929055547
  H        12.1033411833        9.7686286083        9.0726873510
  H        13.0841534650        8.6008441119        8.2448837373
  C        10.8716177008        8.5677854825        7.9156430326
  H        10.7476044119        9.3421600062        7.1852532605
  H        11.0066863883        7.6981233914        7.3560571507
  H         9.9532278824        8.4744382042        8.4652397869
  H        -2.8409510650       14.7296375737       16.4327920238
  C        -2.8089772598       13.6540610403       16.4025634141
  H        -3.7922301551       13.3856746981       16.7558580247
  C        -1.7755636925       13.1617593287       17.4368745793
  C        -2.4802365194       13.2113244282       14.9689819712
  C        -2.3134446661       12.9915898181       18.8236934127
  H        -1.4438071120       12.1499749626       17.1490612036
  H        -0.9664456435       13.9338982659       17.3636984459
  H        -1.5662249830       13.6280385741       14.6470263704
  H        -2.2382254106       12.1988129157       14.7910686373
  H        -3.2112351109       13.2225804325       14.1854414189
  C        -1.3850165006       13.7280023745       19.7658732775
  H        -2.1735986187       11.9379527599       19.0481195417
  H        -3.3312466057       13.1000080698       19.0007378326
  C        -1.7969605265       13.6929318694       21.2213000423
  H        -0.4163762621       13.2111117718       19.7378105158
  H        -1.2823936063       14.8187416011       19.6157634570
  C        -1.0101386059       12.9526604627       22.2531315142
  H        -2.8481926481       13.4307110079       21.2808095890
  H        -1.8155142199       14.7854641340       21.4980105503
  C         0.0874232525       13.8168392197       22.8639489712
  H        -1.6234744431       12.3431080045       22.9217231072
  H        -0.5564687469       12.2022155785       21.6489624260
  C         1.2853098443       13.1572915780       23.5540526176
  H         0.6430172500       14.3340222526       22.0654909537
  H        -0.2419392547       14.5165627584       23.6377802050
  C         1.6457659335       11.7676156290       22.8714856091
  C         0.8252135811       12.3667700074       24.7201796998
  C         2.6203333107       13.9763967857       23.6431394065
  C         1.3000344649       10.6559849960       23.5571473230
  C         2.1971587742       11.3869770833       21.6500663627
  C         0.8658396538       11.0243925620       24.7758483553
  C         0.4209896948       13.0085759556       25.8678120394
  H         3.0067604126       14.1287758526       22.6499992656
  H         2.3569758790       14.9531287371       24.0049542319
  C         3.7885609795       13.4478243682       24.4990806686
  S         1.7653790459        9.1273449625       22.8641006447
  C         2.2880849928       10.0241869620       21.4864191804
  H         2.3925938471       12.1182453420       20.8912518737
  C         0.4741659811       10.4254089262       25.9457428844
  H         0.4050972510       14.1171306918       25.8149961973
  C        -0.0433294613       12.4621132725       27.0026723823
  H         3.9731051569       12.3435542857       24.3358401941
  H         3.5696653314       13.4797100404       25.5495535620
  C         5.0434445597       14.2751522081       24.2733658382
  C         2.5610895677        9.3938062584       20.1307769197
  C         0.0520811426       11.1157022744       27.1215528838
  H         0.6202307849        9.3813631439       25.9240611647
  C        -0.4150869066       12.9083688883       28.2304973608
  H         5.7461253193       13.7581723663       24.9889108880
  H         4.9105175996       15.2631481163       24.7336099569
  C         5.7509198264       14.3628100988       22.9410569646
  C         2.4089658864        8.0718676335       19.7669562634
  C         2.9401334665       10.3085518648       18.9633661991
  C        -0.3603197230       10.3702376094       28.3475558800
  C        -0.6109094814       11.7364640826       29.0111878777
  S        -0.9050379192       14.3874179504       28.9691692771
  H         6.3971852353       15.2486064202       23.0623993508
  H         4.9383371587       14.6152221782       22.2833859227
  C         6.4929010173       13.1584437538       22.4534432195
  N         2.0037829334        7.0419876223       20.6967278668
  C         2.7636233300        7.4959906261       18.5404964808
  C         3.1748203246        9.7671701451       17.7138778998
  H         3.0844977285       11.4406722336       19.0265706130
  C         0.6908951498        9.6048940649       29.1270055493
  C        -1.7363173671        9.6921366672       28.3179621812
  C        -0.9825022520       12.1133361032       30.3119041797
  C        -1.1735225579       13.4718723259       30.4119427094
  H         7.1413072770       12.9128045697       23.2718357215
  H         5.8515705550       12.2604436456       22.2099489474
  C         7.3994013917       13.2179318441       21.1739563057
  S         2.0574636812        5.5978033184       19.9368246971
  N         2.6598493042        6.0775370067       18.5250352874
  C         3.1804272213        8.3033411627       17.4442766833
  H         3.4390371052       10.4356984558       16.9127920553
  H         1.1055690961        8.9050790408       28.4461240248
  H         0.4081876869        9.1540960014       30.0575494236
  C         1.9861813730       10.5324537790       29.4448476573
  H        -1.5598904196        8.7643967955       27.7567865203
  H        -2.0748310856        9.3793023596       29.2686105504
  C        -2.9397382999       10.4661076722       27.7322714269
  H        -1.1265075403       11.3619904327       31.0623897069
  C        -1.5546821448       14.1580283347       31.7059080952
  H         7.6621677227       12.3024954171       20.7927401037
  H         8.3150609525       13.6510792113       21.5030017712
  C         6.7477515613       13.9641234034       20.1351832358
  C         3.3853521745        7.6067657254       16.2030424252
  H         2.3740876559       11.0196201674       28.5797447329
  H         1.7310617010       11.2658256150       30.1743084082
  C         3.0895807540        9.6902335690       30.1110752184
  H        -2.5710235270       10.9843986327       26.9135834729
  H        -3.3240941603       11.1578980990       28.4494301972
  C        -4.2255256845        9.6573055958       27.3789242451
  C        -1.6617418359       15.5896808827       31.8866854080
  C        -1.7885210492       13.3545437544       32.9391570802
  H         6.5375166453       14.9575950840       20.5280455662
  H         7.5018260966       14.0525716008       19.3992467188
  C         5.5180934735       13.2076687136       19.5783827566
  H         3.3383792786        6.4892572164       16.1755439082
  C         3.5317795977        8.0898449927       14.9461479084
  H         3.4197128760        8.9156781180       29.4756408974
  H         2.5883193411        9.1188626851       30.9092250174
  C         4.2986442971       10.4889928025       30.5232648707
  H        -3.8245824697        8.7266873454       27.0089386982
  H        -4.7961365876        9.4506834704       28.2861178031
  C        -5.1285320800       10.3217549239       26.3944791139
  N        -1.4807890697       16.5739444635       30.8834573357
  C        -1.9620877164       16.1712253493       33.0743423571
  C        -2.2307006789       13.9426565081       34.1134042579
  H        -1.6335274539       12.2855403424       32.9474292351
  H         5.6733826152       12.9939409617       18.5422250505
  H         5.5394241667       12.2630341274       20.0617654964
  H         4.6128577791       13.7045936227       19.7405598966
  S         3.9060700186        9.6939294431       14.3634594545
  C         3.4974143933        7.0421996773       13.9149643563
  H         4.5119632108       11.2015869476       29.7495948768
  H         4.2252619566       10.9486795902       31.5398496495
  C         5.5773894639        9.6414314708       30.4948741333
  H        -5.2463091079        9.8313206186       25.4026385225
  H        -4.6676254952       11.2446043438       26.0941938383
  C        -6.5182074431       10.4800764518       27.0877558082
  S        -1.5159789849       18.0335720980       31.5790266656
  N        -1.8936228515       17.6026198200       33.1246037223
  C        -2.3083616890       15.4294848568       34.2368500172
  H        -2.4592996360       13.2775566006       34.9114153507
  C         4.0401339247        8.8904488478       12.8231657558
  N         3.8526362411        7.5320571333       12.7417416800
  O         3.2467044538        5.8388927140       14.0679318819
  H         6.4199641523       10.2433601116       30.8858471133
  H         5.9476709860        9.4153299184       29.4542881843
  C         5.5031970512        8.3993586822       31.4169478976
  H        -6.9159531269        9.4932488520       27.2843428071
  H        -6.3909370157       11.1322115435       27.9879452389
  C        -7.5825545955       11.1755126754       26.1885410202
  C        -2.6752036895       16.0457990367       35.4381808338
  S         4.4394618291        9.7324174763       11.3295776609
  C         3.7326463177        6.7513018869       11.4757450702
  H         6.1687111192        8.5179427313       32.2792179634
  H         4.5327246995        8.3817505513       31.7611348244
  C         5.7773252207        7.0968714075       30.7004968831
  H        -7.0791167248       11.8958245310       25.5311621256
  H        -8.3026364641       11.7037805222       26.8074568485
  C        -8.4250486926       10.2180203633       25.4251424185
  H        -2.6101681726       17.0275715397       35.3616685603
  C        -3.1680210924       15.5783500563       36.6023925788
  H         4.4332056369        7.0667719649       10.6869782071
  H         3.9738644608        5.7118485881       11.6371932209
  C         2.2618847286        6.7939319684       10.9472130997
  H         6.4550929640        7.2684609454       29.8734642767
  H         4.7603075106        6.8626188277       30.3155866584
  C         6.2894277284        6.0984054787       31.7051799067
  H        -9.1051186004       10.8649943503       24.7854847443
  H        -7.8062152945        9.6122725058       24.8543405914
  C        -9.2777367689        9.4143626097       26.4076321529
  S        -3.6618285785       13.9526326896       36.9812843036
  C        -3.3052049939       16.5401514504       37.6899487008
  H         2.0704023549        5.9879096815       10.2362355238
  H         1.5444467424        6.5953893900       11.7745816262
  H         2.1479926805        7.7278985164       10.3971305451
  H         7.0452048123        5.5296453552       31.1320920059
  H         5.4994053150        5.4973133730       32.1303969414
  H         6.9266842254        6.3878536677       32.5199858231
  H       -10.3425051511        9.5615834718       26.1881080050
  H        -9.0695732093        9.4418814010       27.3943120544
  H        -9.1316769959        8.4022034884       26.1249962815
  C        -4.2854852473       14.6949012437       38.5434208306
  N        -3.9283898097       15.9363871827       38.6860375292
  O        -2.9010664959       17.7262826256       37.7142093535
  S        -5.0511625402       13.7423782143       39.8501668731
  C        -4.2044554187       16.6827132726       39.9177999070
  H        -4.3168514787       17.7877893045       39.7799645861
  H        -5.1690536314       16.3907949123       40.2967016129
  C        -3.1522644092       16.5253453147       40.9745687249
  H        -2.5423231681       17.4271781559       41.0061767865
  H        -3.6580688410       16.4130877427       41.9540216463
  H        -2.5648522160       15.5721419373       40.7731005550
