352
 i =     2800, time =     2800.000, E =        41.4694836167
  H        12.2870815393        6.4200547230       32.2523413283
  C        11.6926190137        5.6033677351       32.1283825118
  H        12.1479842323        4.7741992949       31.6281503666
  C        10.3322528581        5.6736570409       31.4121295613
  C        11.3627777376        5.0908529573       33.5169296214
  C        10.5809118646        6.2004610607       29.9681447243
  H         9.6722699835        4.7466539858       31.4878336865
  H         9.5841589608        6.3307437070       31.8232493265
  H        12.1895842162        4.5634642934       34.0346837447
  H        11.0800599618        5.9221342088       34.1575632706
  H        10.6911616690        4.2216987929       33.4454000193
  C        10.2984365739        5.1717641790       28.9447767865
  H        11.5748852326        6.5849063904       29.6767105478
  H         9.8885903527        6.9792889912       29.7431711333
  C        10.6885262489        5.5325973283       27.5686506547
  H        10.7623132458        4.2165565389       29.3157283435
  H         9.2794274825        4.8941762869       28.9948571586
  C         9.7247337996        4.8116272696       26.5178892750
  H        11.6990214878        5.1716522621       27.3715724894
  H        10.7000986976        6.5826422166       27.5361002042
  C         8.4552428724        5.6404326562       26.1693074602
  H        10.2849996590        4.4917650623       25.6726429871
  H         9.4757374138        3.8937623747       27.0976174412
  C         7.2755097788        4.9819769981       25.4268820388
  H         8.0908264651        6.0081475401       27.1504367093
  H         8.7633754126        6.5482337252       25.7703893695
  C         6.8922679126        3.5719422876       26.0411417311
  C         7.7584512343        4.2542492971       24.1497921709
  C         6.1175156693        5.9756419217       25.3518986215
  C         7.2830872978        2.5148088203       25.1780626693
  C         6.4263530717        3.0940362469       27.2481571516
  C         7.8039183660        2.9548421262       24.0315003267
  C         8.1689407816        4.9803091687       23.0286684401
  H         6.4435679129        6.8550673703       24.7340566550
  H         5.8182044401        6.2440961945       26.3971464213
  C         4.8886304314        5.3366902372       24.7097024329
  S         6.9615841374        0.9564468857       25.8959443996
  C         6.3065380016        1.7700971810       27.2953534878
  H         6.3428681123        3.7564527245       28.0501838376
  C         8.2603692938        2.3935936638       22.8766983726
  H         7.9620349833        6.0447211015       22.9059003251
  C         8.5834652670        4.3659924761       21.9431615997
  H         5.0948295597        5.1367014312       23.6973098180
  H         4.5010551027        4.4374452223       25.1367894009
  C         3.6251602669        6.0600504487       24.5417090360
  C         5.8254759585        1.0872578925       28.4668794901
  C         8.7536222594        3.0537709333       21.7991106802
  H         8.1592205635        1.3403639329       22.7780119731
  C         9.1222384272        4.8123927791       20.6856678962
  H         3.2406971631        5.6102822987       23.5637216491
  H         3.8591777522        7.0534229111       24.0242736530
  C         2.7346354060        6.3006019938       25.7157379022
  C         5.9906239600       -0.2777452534       28.8256243934
  C         5.3647579217        1.8312297441       29.6914902389
  C         9.2176695477        2.4207993825       20.5255079762
  C         9.4075039696        3.7684486624       19.8759748748
  S         9.2764033105        6.3746669430       19.9892712580
  H         2.1191675827        7.2075710009       25.4835163092
  H         3.4450275804        6.8051035539       26.3611043391
  C         1.9821797899        5.1072802955       26.2995105661
  N         6.3347404367       -1.2404299597       27.8552672703
  C         5.7026626314       -0.8952235899       30.0417623946
  C         4.9745433844        1.2345347351       30.8923410830
  H         5.2432797164        2.8683396716       29.6019142490
  C         8.0405536840        1.6261307397       19.7912565810
  C        10.4249691369        1.4831379664       20.7763958241
  C         9.7000266447        4.2215956850       18.5991917503
  C         9.7414900585        5.5389130668       18.5225019077
  H         1.2364998479        4.7919963742       25.5509706287
  H         2.6290465623        4.2122763659       26.4232549226
  C         1.2569072810        5.3264193565       27.6090143594
  S         6.4589765269       -2.7140052191       28.5204375437
  N         5.9657414890       -2.2257486444       29.9668602755
  C         5.2753341911       -0.1705003814       31.1670984799
  H         4.6531196629        1.8745470190       31.6921785494
  H         7.5688647498        1.0258237894       20.5110475812
  H         8.4002372063        1.0273704330       19.0267782250
  C         6.7626954919        2.4444206904       19.5176922593
  H        10.9036237140        1.2330319149       19.8298997049
  H        10.1116546123        0.4992998549       21.0825861887
  C        11.4982774887        2.2037641462       21.5192300402
  H         9.9139935492        3.4646099704       17.8144998607
  C         9.9798799803        6.2965541160       17.2104944334
  H         0.5385854056        4.5649253880       27.8458247028
  H         0.6367349569        6.1755697171       27.5108803151
  C         2.2762767131        5.6228037250       28.7642213351
  C         5.0650706105       -0.9854970637       32.3339992129
  H         6.9847624214        3.3471367573       18.9645393360
  H         6.3644484154        2.8159683137       20.4038003942
  C         5.8463429211        1.6358543656       18.6360372267
  H        11.3816694865        2.1319247675       22.5927562928
  H        11.5423690789        3.2435662391       21.2110111846
  C        12.9490732226        1.6758539453       21.2281185976
  C         9.8895561617        7.6948158083       16.9656847769
  C        10.2677584848        5.4608844364       15.9735560034
  H         2.9605707931        4.7933350822       28.4703617279
  H         2.6298501289        6.6847012013       28.6546042446
  C         1.6164048891        5.4668138329       30.1183171176
  H         4.9724565476       -2.0650100398       32.1651017151
  C         4.8890290835       -0.5195067942       33.5926818149
  H         5.4581340702        0.6706507119       19.0564281269
  H         6.3078997130        1.2123743314       17.6766324427
  C         4.7468548219        2.4473954509       18.0174926878
  H        13.0625438235        0.6486195927       21.5662009924
  H        13.2820266543        1.6287586196       20.1715747864
  C        13.9294030904        2.4795391029       22.0623034611
  N         9.7655997796        8.7046881283       17.9051505727
  C        10.2015599677        8.2521823415       15.6947721238
  C        10.4127036392        6.0913573857       14.6899858840
  H        10.1857502269        4.3209634442       16.0301164049
  H         2.4287171090        5.5650882251       30.8680282340
  H         0.8388936718        6.2747084977       30.4152670013
  H         1.2748043409        4.5152632821       30.2330890629
  S         4.7503288310        1.1422385281       34.0138093009
  C         4.5729057647       -1.4672495899       34.6744038698
  H         4.7782574105        3.3998001466       18.5044833166
  H         4.9163884482        2.4580901615       16.8834010029
  C         3.3062842191        1.9266814610       18.4139351650
  H        13.5035207630        2.7886404630       23.0394046877
  H        14.1999032764        3.3573296983       21.5781615134
  C        15.1441884939        1.6812350240       22.4388225797
  S         9.7459733785       10.1862393039       17.1367458811
  N        10.1837712713        9.6637383471       15.7025927980
  C        10.4834651714        7.5821862598       14.4887745928
  H        10.2321393635        5.3938930683       13.8833553776
  C         4.2825778111        0.4851849398       35.5571170515
  N         4.2262307428       -0.7792776168       35.7860000570
  O         4.6698590024       -2.7385540716       34.5967058684
  H         2.5647034971        2.6771022242       18.3903400590
  H         3.3732896660        1.4302369754       19.3869182750
  C         2.8073584991        0.9302259443       17.3463751219
  H        14.8296255112        1.0132170343       23.2177570296
  H        15.6155741840        1.1251444384       21.6195740449
  C        16.1960392631        2.5070708741       23.1270234561
  C        10.9568342149        8.2647119009       13.3274300369
  S         3.8773447470        1.5583312347       36.9554232533
  C         4.1730645014       -1.3403971094       37.1197135960
  H         1.8902419871        1.2826052521       16.7555831939
  H         3.6281057079        0.6322198620       16.7405921082
  C         2.0750622668       -0.2804602173       18.0626541761
  H        16.0835604216        2.6976286187       24.2529352824
  H        15.9396433019        3.5624223936       22.8099942693
  C        17.5377652580        2.0424036283       22.8499449879
  H        11.0779349934        9.3397561571       13.4503542836
  C        11.4694968136        7.8710566149       12.1133481149
  H         3.4574228519       -1.0460392063       37.9052748248
  H         3.8388676573       -2.3613625690       37.0772809764
  C         5.5361017772       -1.5192330832       37.8479806883
  H         1.1523145497        0.1131737652       18.6947789769
  H         2.8442248539       -0.8410623994       18.5961228803
  C         1.7152301587       -1.3464726258       16.9642104975
  H        18.0845297743        2.3041365133       23.7620640133
  H        17.5259082421        1.0386677438       22.8936570251
  C        18.0640237044        2.8905106730       21.7180794209
  S        11.8328179629        6.2348568206       11.5757670426
  C        11.5604798749        8.8633458237       11.0349109675
  H         6.1840020350       -2.2826106285       37.3559479567
  H         6.1679101670       -0.6143047114       37.9480419750
  H         5.3737242758       -1.8987091387       38.8425626446
  H         0.7401869293       -1.4055857977       16.5412537587
  H         1.8142105230       -2.2954519906       17.4521005066
  H         2.2930890603       -1.4116893602       16.0142769252
  H        17.4657337328        2.5658355368       20.8282944631
  H        18.9785743922        2.5096115749       21.5192597194
  H        18.0074222763        3.9049790900       21.8139794005
  C        12.3915289453        6.8581187050       10.0976836967
  N        12.2203292061        8.2533881187       10.0178170556
  O        11.1850814043        9.9927681275       11.2173579407
  S        13.0367694219        6.0342463608        8.6988916869
  C        12.4845708796        8.9542659348        8.7042244052
  H        12.5302554587       10.0774936828        8.9642532525
  H        13.5048777764        8.7028845689        8.3916866797
  C        11.3005438994        8.6425005517        7.6076010362
  H        11.7491510783        7.8967334389        6.9577522351
  H        10.3159067103        8.3138066034        8.0333982593
  H        11.0493183616        9.4826949072        6.9429961002
  H        -3.1822811106       15.0873799135       16.0964502362
  C        -3.2043100350       14.1175757557       16.1192285120
  H        -4.1787786666       13.6462109688       16.3530003985
  C        -2.2558815959       13.6203219978       17.2730162397
  C        -2.9625928566       13.5090982657       14.7396126042
  C        -2.8335047080       14.0958857039       18.5908254814
  H        -2.0458144556       12.5353992131       17.0982409270
  H        -1.4551445507       14.3273432663       17.2214757308
  H        -3.6216485457       12.6334591787       14.6832828642
  H        -3.0800767275       14.4041473229       14.0022398011
  H        -2.0115835803       12.9226609365       14.5430401439
  C        -1.8169677108       13.8433803681       19.7746304663
  H        -3.7716132399       13.4911690605       18.7886360222
  H        -3.0644449697       15.1521902187       18.7359455422
  C        -2.4004922929       13.7770648131       21.1868181296
  H        -1.4245163794       12.8237724536       19.5910268698
  H        -1.0561837613       14.6460235687       19.8001538233
  C        -1.3945017598       13.1554717146       22.2103826975
  H        -3.3038877624       13.0960538129       20.9794570349
  H        -2.7463593941       14.7633196421       21.4986069501
  C        -0.1412935562       13.9688622701       22.5550642519
  H        -1.9586764360       13.1884879559       23.1035372018
  H        -1.2586835024       12.1128428953       22.0795009011
  C         0.8972805893       13.2337505878       23.3466826954
  H         0.4088566628       14.2671346732       21.7051106630
  H        -0.4134562057       14.9174786406       23.0748544581
  C         1.2901539137       11.9079385263       22.6403163208
  C         0.5599227381       12.3980273262       24.5329008203
  C         2.2192020158       14.0494166774       23.7079626630
  C         0.9773319887       10.7985342944       23.4084255692
  C         1.8479675697       11.5649284362       21.4318398977
  C         0.5449282715       11.0890827936       24.6466356031
  C         0.0759257979       13.0073424351       25.6869648437
  H         2.5547997565       14.5957696730       22.7554700976
  H         2.0537380277       14.7578454018       24.5134503564
  C         3.4371319531       13.1771956391       24.1008869709
  S         1.4769043555        9.3072314462       22.5866371022
  C         1.9536208321       10.2396034605       21.2281806529
  H         2.0872803036       12.2724813623       20.7409749893
  C         0.2620824076       10.4061010199       25.7914900789
  H        -0.0171713938       14.0749860096       25.6174905461
  C        -0.2164827102       12.3680340999       26.8538151194
  H         3.7972221312       12.4561199249       23.4060610555
  H         3.0504101212       12.6749049021       24.9440687018
  C         4.6424779979       14.0801002780       24.2877169121
  C         2.3024936137        9.5412550923       19.9746876038
  C        -0.0568686111       11.0163137204       26.9982979113
  H         0.3076361945        9.3923592695       25.6447969530
  C        -0.5535092769       12.7307432761       28.1363442106
  H         5.2202869335       13.6900729347       25.1837467855
  H         4.4251209695       14.9913730077       24.6715197127
  C         5.5532361932       14.3493195850       22.9950762334
  C         2.1744075583        8.1321589597       19.6987248470
  C         2.8215577271       10.3384387135       18.8793286749
  C        -0.4392885736       10.2927873078       28.2498096240
  C        -0.6621852602       11.6103764118       28.9694159867
  S        -0.8440053562       14.2238473271       28.9591880625
  H         6.2227672992       15.2044313643       23.2801360786
  H         4.9102629197       14.7142845761       22.2432825682
  C         6.4151864835       13.1213644004       22.6255430714
  N         1.9588257876        7.1508415028       20.6048959877
  C         2.6151690099        7.6164667893       18.4705365260
  C         3.1862991767        9.7975184898       17.6858104540
  H         3.1017150021       11.3558347752       19.1173893993
  C         0.6136836737        9.4443945211       29.0365809820
  C        -1.7586127355        9.5106147291       28.0580905143
  C        -1.1260987558       11.9998208832       30.2494170562
  C        -1.1631517733       13.3439618041       30.4536239385
  H         7.0719833306       12.9353276195       23.4974357497
  H         5.6821865910       12.1597964130       22.5763119748
  C         7.2594426491       13.5268273351       21.3795303804
  S         1.9235501374        5.7362754225       19.7781830794
  N         2.2930638746        6.2641051685       18.3429908797
  C         3.1202272557        8.3530334232       17.4132170295
  H         3.7159103109       10.3724198013       17.0275937907
  H         0.6407838871        8.4718680234       28.5119037637
  H         0.1077796572        9.1236516353       29.9415656190
  C         1.9628915499       10.0647172239       29.2843586937
  H        -1.4691220430        8.5465079231       27.5491596310
  H        -2.0629178502        9.3224240915       29.0880936782
  C        -2.9432162762       10.1894836970       27.4032721074
  H        -1.2103903784       11.1977752597       30.8973318433
  C        -1.3543310187       14.0963181435       31.7213452730
  H         8.2520530512       12.9315208373       21.1827272193
  H         7.5839866698       14.5670836193       21.4958714672
  C         6.4250040616       13.5005047171       20.1243762868
  C         3.2820107512        7.6621596358       16.0778916720
  H         2.3018453722       10.4746607603       28.3122590700
  H         1.8281636533       11.0269366742       29.8861017827
  C         2.9881542356        9.2071288792       30.0608351984
  H        -2.5908739761       10.4198170672       26.4008364625
  H        -3.1335196695       11.1617419212       27.9047763566
  C        -4.1647948686        9.4005392897       27.3886995755
  C        -1.4743012803       15.5151690795       31.8956024004
  C        -1.6229818473       13.2583395389       32.8556945083
  H         5.4593917589       12.9446479176       20.1674555976
  H         6.0573520702       14.4878385556       20.1595376694
  C         7.3583689885       13.2930407947       18.9202371674
  H         3.2870010539        6.6823051529       16.1393201533
  C         3.6532191835        8.1139757798       14.8195740391
  H         3.5176243144        8.5034007655       29.4001408244
  H         2.4360795729        8.5835473278       30.7415912233
  C         4.0900030800       10.0728848621       30.7552539260
  H        -4.1123468633        8.5957047669       26.6272458290
  H        -4.3682500720        8.8654373004       28.2552902529
  C        -5.3680291759       10.3405072917       27.0923010094
  N        -1.2018355982       16.4560522673       30.9100237859
  C        -1.9943164209       16.0916614205       33.0719123809
  C        -1.9118444624       13.9094439227       34.1042104082
  H        -1.5073311029       12.2661988997       32.7654356478
  H         6.8519364140       13.2740142158       17.9398885966
  H         8.1094558282       14.1264400576       18.9014553401
  H         7.8120970909       12.3199957134       19.0451840336
  S         3.8144911447        9.7453412563       14.3369163425
  C         3.6733626724        7.1214258232       13.6919305301
  H         4.1509831774       11.0038248639       30.3562595617
  H         3.7761050225       10.1903777144       31.8113588979
  C         5.5293963642        9.6414165334       30.4478237400
  H        -5.1630150028       10.8636290171       26.0905151333
  H        -5.6653130517       11.0302621573       27.8839948873
  C        -6.5899616824        9.5246526042       26.8616192292
  S        -1.4661766636       17.9279824373       31.4761392429
  N        -1.9939891818       17.5159213052       32.9742630465
  C        -2.1752547886       15.3313412572       34.2421387779
  H        -2.1969451941       13.2826641896       34.8827197545
  C         4.2230052338        9.1515218276       12.8005060046
  N         4.0823048891        7.7889190562       12.5852695204
  O         3.4527673794        5.9122358800       13.8153687581
  H         6.3156927861       10.4298837814       30.7083626774
  H         5.5392335249        9.4744355746       29.3944981398
  C         5.9407564120        8.3993498832       31.2935994598
  H        -6.5920442415        8.9897120144       26.0118543301
  H        -6.6692341016        8.9092605559       27.7345386075
  C        -7.8259258118       10.3572982356       26.9437258371
  C        -2.6604793887       15.9683730467       35.4754953664
  S         4.5770905922       10.1668139265       11.3909397960
  C         4.1086165806        7.1987708715       11.2426465835
  H         6.7549437304        8.7715632071       32.0218944631
  H         5.2292663005        8.0148277984       31.9838948421
  C         6.5997883985        7.2923706351       30.5663499098
  H        -7.6089311855       11.3882455537       26.6539377821
  H        -8.2601661179       10.4401052233       27.8950210587
  C        -8.8880878165        9.8826713013       25.9135660543
  H        -2.3196558725       17.0650275440       35.5495587924
  C        -2.9969595061       15.4663027930       36.7260494902
  H         4.6874634343        7.8925103726       10.5919859629
  H         4.7349012349        6.2792970469       11.2792943595
  C         2.6718337030        6.9261767983       10.5730209327
  H         7.6159132812        7.5975450986       30.2490829189
  H         5.9616109208        7.0521776225       29.7468419491
  C         6.7779461795        6.0233791011       31.3408876860
  H        -8.9995444734       10.4704355716       24.9567829259
  H        -8.7109603113        8.9086014980       25.5258545920
  C       -10.2269244440       10.0217083218       26.5252303846
  S        -3.5873810485       13.8892824043       36.9981002386
  C        -3.1923151423       16.4581880726       37.8174807324
  H         2.7942868579        6.9463985644        9.5092047345
  H         2.3086428256        6.0262055901       10.9526079537
  H         1.9529206002        7.6546516969       10.8034208689
  H         7.6076762834        5.4340889433       30.9484446736
  H         5.9536062826        5.3159954431       30.9688158366
  H         6.7924167808        6.1632610049       32.4839542140
  H       -10.3856958443        9.2489185237       27.3794372890
  H       -10.9589291349        9.6452389996       25.8431649484
  H       -10.6372572125       11.0994262401       26.8233964710
  C        -4.1408804409       14.5131679434       38.5725781659
  N        -3.8534807855       15.8333312939       38.7320736052
  O        -2.6564918535       17.5679442179       37.8579813149
  S        -4.6818225407       13.5952330453       39.9122446099
  C        -3.9355359270       16.6320042261       40.0248559527
  H        -4.2236163959       17.6131507581       39.6779281403
  H        -4.8757310554       16.4222766060       40.6028280064
  C        -2.5712782359       16.6161822247       40.7190840365
  H        -2.3644846665       15.6119824592       40.9226646023
  H        -1.7932840507       16.9310811728       40.0585242368
  H        -2.5944640155       17.1700250572       41.6326236915
