352
 i =    75900, time =    75900.000, E =        25.2282439631
  H        10.4736462632        4.6589841126       31.3073260926
  C        10.3849949101        5.5818797122       31.8874410941
  H         9.3161666903        6.0600136580       31.6947703715
  C        11.3363822111        6.6091676476       31.2464243375
  C        10.7444394045        5.3850284425       33.4051101037
  C        11.5362365297        6.3041164200       29.7377615596
  H        10.9639973486        7.6402385681       31.4146094813
  H        12.2279905635        6.5417941697       31.7962105106
  H        10.4107720403        4.3336583835       33.6615634858
  H        11.8355524813        5.2691814634       33.5134988776
  H        10.3008615123        6.2642998011       33.9066055209
  C        10.2045204129        6.3079842596       29.0489061657
  H        12.0419182769        5.3562975449       29.6248438377
  H        12.2382669742        7.0147888779       29.3607689978
  C        10.4568589646        6.0847865859       27.5804855996
  H         9.5107069426        5.6274247150       29.4056186863
  H         9.6852201818        7.2504017772       29.2821090706
  C         9.4274160344        5.2065364417       26.8364753720
  H        11.4775692251        5.7774410318       27.5232927694
  H        10.5002765075        7.0305536557       27.0726626031
  C         8.2939744226        5.9928022694       26.0960290029
  H        10.0457669128        4.6026333667       26.1615118002
  H         9.0522933143        4.6161077263       27.6191052854
  C         7.1978290325        5.1248091829       25.4184712921
  H         7.7567321491        6.4399625252       26.8926280423
  H         8.5809081204        6.8530036194       25.5265379681
  C         6.9331083897        3.6999090411       26.0645468641
  C         7.7588019607        4.4114224261       24.2331036507
  C         5.9619124179        5.9577225148       24.9291744089
  C         7.1315274153        2.6150130431       25.2140252269
  C         6.5671351379        3.2544386989       27.3636336674
  C         7.6707751406        3.0692596920       24.0283156430
  C         8.3444285484        5.1689396485       23.2347476917
  H         5.5694651967        5.5789133345       24.0278588914
  H         6.3587686205        6.9528525963       24.8198917504
  C         4.9338329882        5.9318507903       26.0201066317
  S         6.8011493490        1.0507257003       25.8811707870
  C         6.2827464064        1.9054834213       27.3486201718
  H         6.3869787618        4.0001144559       28.1180170527
  C         8.0443312628        2.4962537913       22.8856358321
  H         8.3983337131        6.2585968313       23.3780132966
  C         8.5949660303        4.6107627021       22.0059913669
  H         5.4619129894        5.7055612394       26.9820778637
  H         4.5586859141        6.9601177261       26.1263490624
  C         3.7685883797        5.0074079380       25.9180059645
  C         5.7169505765        1.1402822882       28.5509858341
  C         8.4298283996        3.2750646129       21.7275055545
  H         8.0192192051        1.4452888679       22.6717158921
  C         9.0464990325        5.0244003170       20.7409455754
  H         3.9263461180        3.9800276693       26.3287536864
  H         3.4582803166        4.8743943759       24.8896621675
  C         2.5071189013        5.4942804932       26.7137207953
  C         5.8168534094       -0.2204273753       28.8705510779
  C         4.9692446896        1.9325312846       29.5925900270
  C         8.8227279072        2.5935639629       20.4701943891
  C         9.1350841190        3.9562035452       19.8472299059
  S         9.3544168741        6.5042480503       20.0031660939
  H         1.6193016226        5.3710756889       26.0486031787
  H         2.6640392130        6.5578906723       26.9594417005
  C         2.2895024201        4.6526498916       27.9907943522
  N         6.3214290716       -1.1505524009       27.9553159158
  C         5.5927886176       -0.7452767389       30.1521031587
  C         4.7284888170        1.4248183198       30.8441742820
  H         4.7086356990        3.0065673897       29.4176614647
  C         7.6530842572        1.8682625295       19.8636723144
  C        10.0901709729        1.6922268818       20.5086914867
  C         9.5838113566        4.3517354030       18.5607546334
  C         9.7192266709        5.6940097881       18.4699849234
  H         1.6416848143        3.8068376763       27.7589406998
  H         3.2031736580        4.1257762965       28.3359404869
  C         1.4959202374        5.5955755386       28.9269339411
  S         6.4743663775       -2.5755626699       28.7518032466
  N         5.8504508591       -2.1432670964       30.2440772766
  C         5.0873358706        0.0274829052       31.2155800799
  H         4.2498080723        2.0633851835       31.5731442890
  H         7.2525623093        1.2319815960       20.6305040977
  H         8.0245641830        1.3259454061       18.9847708981
  C         6.4389664815        2.7390541082       19.3846217006
  H        10.2766535240        1.3600500605       19.5070899179
  H         9.9624641080        0.8042780987       21.0951016866
  C        11.4072627664        2.3532025012       21.0222664380
  H         9.6307010822        3.5826284720       17.7514806210
  C        10.0647101345        6.3359912797       17.0778590824
  H         0.7470404959        6.1355747123       28.3930728559
  H         2.1500576878        6.3316855384       29.3602958161
  C         0.7384315498        4.9531940404       30.1064905985
  C         4.9791870713       -0.5594333634       32.5372175962
  H         6.7008218077        3.1390919059       18.4134870302
  H         6.2420434482        3.5377011737       20.1089258345
  C         5.2636580868        1.7945319280       19.0692126918
  H        11.1361134060        2.9429736989       21.9361598789
  H        11.7631892547        2.9980857730       20.2126064625
  C        12.5511010952        1.2867122069       21.2212787154
  C        10.1882656294        7.7422332437       16.9293235549
  C        10.1067130970        5.5052366304       15.7705983834
  H        -0.1242963205        5.5296036552       30.4796110698
  H         0.2975951909        4.0319583028       29.9187704348
  C         1.7957472448        4.6888682276       31.1399336500
  H         4.8483052136       -1.6411842918       32.5257153312
  C         4.6727862661       -0.0002589928       33.7371406368
  H         4.3215538237        2.1936548276       19.2013738798
  H         5.2264730038        0.9701762731       19.7742545962
  C         5.2041796547        1.2593478268       17.6554423470
  H        12.2080754222        0.6563115723       22.0477067541
  H        12.5725471690        0.6598342648       20.3959804312
  C        13.8832960596        1.9783079679       21.6058890824
  N         9.9272984159        8.6164260342       17.9652721019
  C        10.5628635118        8.3739534126       15.7522844349
  C        10.3617562374        6.1906055032       14.5555828417
  H        10.0481044086        4.4080388267       15.7500846085
  H         2.0484436851        5.6129773481       31.7252129866
  H         1.4623647697        3.8396144964       31.7419968661
  H         2.7243468432        4.3829491527       30.6908913649
  S         4.3137979901        1.6493056907       34.1637334568
  C         4.5263699567       -0.9629252559       34.8307932092
  H         5.3202946102        2.2015429874       17.1232178887
  H         6.0226608546        0.5160008701       17.3627289495
  C         3.8034128092        0.6223955126       17.4261823609
  H        13.5848098500        3.0407925171       21.7677933601
  H        14.4408114665        1.9168227307       20.7053156969
  C        14.7010009780        1.5045800305       22.8091810475
  S        10.1612455489       10.1034610794       17.4872455549
  N        10.6251000129        9.7416286550       15.9168466790
  C        10.6143598136        7.6542822294       14.5274834689
  H        10.3304142227        5.6223522332       13.6490876239
  C         4.0422460704        1.0894863313       35.7504831249
  N         4.1188792110       -0.2789603664       35.9406131802
  O         4.7683921210       -2.1568942594       34.8102212513
  H         3.9262606071        0.0953611883       16.4313868566
  H         3.1004276951        1.4434602833       17.2202579069
  C         3.2436023558       -0.2980070762       18.5177584270
  H        14.1328747394        1.0265127541       23.6203948978
  H        15.3358317579        0.7916750109       22.3486925311
  C        15.5571402129        2.6241742042       23.3070762205
  C        10.8613943386        8.4668209173       13.3594417504
  S         3.4808000474        2.0791628517       37.1036530591
  C         4.0269921463       -0.9970126088       37.1936171696
  H         4.0950286733       -0.7851536455       19.0085829420
  H         2.6433673853        0.2423028810       19.2024019928
  C         2.2770644122       -1.3783686518       17.8810288843
  H        14.9888405147        3.1127562959       24.0461039989
  H        15.7007857794        3.2852171486       22.4996137771
  C        16.8846171047        2.2526879616       23.9575253954
  H        10.4825020487        9.4302105277       13.4465060658
  C        11.3783293474        8.0962382346       12.1734535619
  H         3.4660461913       -0.5297412787       38.0274990754
  H         3.4587424191       -1.9306240317       36.9944085758
  C         5.4375904464       -1.3287101806       37.7638223943
  H         1.5371305914       -1.0073539742       17.1799253470
  H         1.5651934809       -1.7692504328       18.5804358107
  C         3.0206605037       -2.6137826723       17.3615389068
  H        17.1640581585        3.0336470488       24.7217668286
  H        16.7747169685        1.3563752873       24.5019905580
  C        17.9574414322        2.2365853317       22.7885296381
  S        11.8335043202        6.5804626605       11.5713057462
  C        11.6045092111        9.2175324422       11.1754324153
  H         6.0825182779       -1.8747488147       37.0410437508
  H         5.8424675406       -0.2799629516       37.8577541788
  H         5.4876947955       -1.8085780162       38.7274481434
  H         3.5785063081       -2.4079772108       16.4785614774
  H         2.3276685431       -3.3949007379       17.0334909446
  H         3.6810952777       -2.9735089925       18.1589710846
  H        18.8586672581        1.6392346867       22.9696960129
  H        18.2712166732        3.2732700690       22.5517864743
  H        17.4029261527        1.8185760265       21.9256327076
  C        12.0258857528        7.3763763464        9.9650292195
  N        11.8580483630        8.7091039804       10.0036524512
  O        11.2389318584       10.4055332599       11.2522377211
  S        12.6051518270        6.4725240542        8.5480126766
  C        12.0813422278        9.5644998269        8.9009652764
  H        12.4218793409       10.4286812289        9.2908105740
  H        12.7920401807        9.1370219330        8.1460961268
  C        10.6702383124        9.8243327592        8.2060528091
  H        10.7584320250       10.6545609487        7.4771059947
  H        10.2836637110        8.9724410304        7.5927450212
  H         9.8623518352       10.1374465946        8.9482885382
  H        -3.0098947849       15.2884377255       16.8982296285
  C        -3.2321642613       14.2110885866       16.9029278622
  H        -4.2447837557       14.0701998755       17.2770187862
  C        -2.2798103829       13.5396878686       17.8587829893
  C        -3.0941295889       13.6233049666       15.4867221803
  C        -2.8783409823       13.6063444343       19.2486610759
  H        -2.1825124334       12.5165335237       17.6542041514
  H        -1.3439318965       14.0931867285       17.9407287879
  H        -2.9180592984       14.3933539263       14.6798294439
  H        -2.1644735937       13.0926665532       15.4158353439
  H        -3.8298040012       12.8768061995       15.1731968837
  C        -1.7565595913       13.2710315177       20.2945795323
  H        -3.6052758383       12.8373672498       19.4186932589
  H        -3.3159095003       14.5659606686       19.4274602289
  C        -2.2595016355       13.3358539630       21.7659180729
  H        -1.3980432102       12.2722471497       19.9889475729
  H        -0.9469292181       14.0174277379       20.1539113719
  C        -1.1789106478       12.5847547594       22.5771160328
  H        -3.1543928890       12.7644683433       21.8693449542
  H        -2.4394776797       14.3455529488       21.9218442742
  C         0.1600434441       13.3438895748       22.6793377004
  H        -1.6179974267       12.5044629171       23.5959591945
  H        -1.0872089058       11.5956375393       22.1425374577
  C         1.3644314489       12.7169384663       23.4199408988
  H         0.4552375146       13.7420530433       21.7458351386
  H         0.0007672639       14.1917089292       23.3468164534
  C         1.6910040478       11.4456511629       22.7415384955
  C         0.9620799391       12.0474030490       24.6386492776
  C         2.6074532679       13.5775509642       23.5713712006
  C         1.4164377990       10.3419556104       23.4929231143
  C         2.1639685159       11.0848340359       21.4805200947
  C         0.9445272225       10.7034427182       24.7297030194
  C         0.5039453156       12.7077991642       25.7862078079
  H         2.7795612578       14.0502521775       22.6808808581
  H         2.2469812439       14.3099326436       24.3332134320
  C         3.9019032907       12.8733428059       24.0485933642
  S         1.6284820049        8.8404031120       22.7505069579
  C         2.1635138502        9.7049120693       21.2652056597
  H         2.4153835779       11.8101730108       20.7699841271
  C         0.5377895435       10.0654511430       25.8647322371
  H         0.4874296073       13.7834866382       25.7571406564
  C         0.0865061488       12.0645244986       26.8972562640
  H         4.2194629859       12.1992970014       23.3158940940
  H         3.7365301645       12.3908388931       24.9922131765
  C         5.0392963416       13.8737365755       24.2731486500
  C         2.5441077096        9.0544420411       19.9707360226
  C         0.1169577311       10.7544271414       26.9551812426
  H         0.5127908058        8.9891192283       25.9618112719
  C        -0.3666404369       12.4306014586       28.1801941296
  H         5.6262497444       13.5103293466       25.1510945236
  H         4.7465877420       14.8520443752       24.6436430746
  C         5.7866944871       14.1850121919       23.0370350388
  C         2.5279087394        7.6643624071       19.6276166673
  C         2.8352286439        9.9811022665       18.8124873205
  C        -0.1791311681       10.0074826474       28.2711561772
  C        -0.5209234296       11.3296517857       28.9830868806
  S        -0.8539795889       13.8651161890       29.0610822375
  H         6.4524218780       15.0289974629       23.1125473397
  H         5.1602534692       14.4182807251       22.2199903171
  C         6.8388421757       13.1074245139       22.6349168866
  N         2.2577699704        6.6154369840       20.5411209826
  C         2.7698184630        7.1181111746       18.3471604632
  C         3.1416739203        9.4175832199       17.5772855501
  H         2.7269240097       11.0914019781       18.8757032114
  C         1.0051365123        9.2378419240       28.7834019867
  C        -1.4288564059        9.0616729446       28.2595441820
  C        -0.9204739372       11.6262783881       30.3199285438
  C        -1.2437580369       12.9552617357       30.5289053200
  H         7.6260905382       13.0671174080       23.3894756357
  H         6.3501897516       12.1016494872       22.6663327035
  C         7.5387661066       13.3670167566       21.2393135150
  S         2.1176597129        5.2081117369       19.7583305316
  N         2.5179174214        5.6939960360       18.2691449419
  C         3.1083876063        7.9303572021       17.2814890515
  H         3.1846956066       10.0643734232       16.6953449859
  H         1.4920242676        8.6144594538       28.0661684325
  H         0.5791394150        8.5397429546       29.5477303700
  C         2.1205167025       10.1989228081       29.1007034599
  H        -1.2192100693        8.0511238096       27.8350922552
  H        -1.7989639434        8.9142792456       29.2654578917
  C        -2.5853979077        9.6038534154       27.4399982487
  H        -1.0001260240       10.7655420027       31.0120329946
  C        -1.6308138834       13.5898619210       31.8618846158
  H         8.2931777157       12.6397505661       21.0623743644
  H         8.0159660870       14.3690018254       21.2699302383
  C         6.5852616343       13.4410177229       20.0260917935
  C         3.3744289190        7.3093974031       16.0007887854
  H         2.4809901334       10.7510475582       28.1986902806
  H         1.8005619755       10.9230981275       29.8625681437
  C         3.3323764337        9.4306511264       29.7486361374
  H        -2.2334364899        9.6974323931       26.3957883096
  H        -2.8563822830       10.6472131932       27.7403145860
  C        -3.8934815509        8.7888386417       27.4668773541
  C        -1.7327064484       14.9944687023       32.0806347869
  C        -2.0188416527       12.7483983166       32.9618956321
  H         5.9683528050       12.5429110105       20.0238303959
  H         5.9855100528       14.3486525225       20.2070119015
  C         7.3113166107       13.5810614029       18.6113014406
  H         3.5784087883        6.2389527312       16.1153286046
  C         3.5968535931        7.7479245640       14.7061997666
  H         4.0057776051        9.2637779101       28.9222343151
  H         3.0087062643        8.4223578414       30.1590407177
  C         4.0608410360       10.0741684945       30.8730832722
  H        -3.8250954714        7.9211033426       26.8438082498
  H        -3.9366939808        8.4823289252       28.5027160252
  C        -5.0242606232        9.7757009605       27.1971766120
  N        -1.4085707897       16.0074285987       31.1340182615
  C        -2.2166635918       15.5893949789       33.2866894398
  C        -2.3971099508       13.3075981479       34.2022716226
  H        -1.9454790508       11.6653046791       32.8613628348
  H         7.9443640086       12.7497667360       18.3176189750
  H         6.4653737352       13.7450557188       17.9012468214
  H         7.9937511846       14.4378619516       18.7018094262
  S         3.8060393861        9.3677571232       14.0759417100
  C         3.6674252493        6.7181879116       13.6789313270
  H         4.6590813990       10.9035001251       30.5260817197
  H         3.3290857331       10.4826206008       31.6544104236
  C         4.9724704051        9.1321766990       31.5365138126
  H        -4.7974617256       10.6699773742       26.6795070982
  H        -5.4132461278       10.1357047302       28.1797065645
  C        -6.0588524401        9.0098598813       26.4731215792
  S        -1.8076721083       17.4470695421       31.7546758545
  N        -2.2698436578       16.9436192146       33.2625678593
  C        -2.5751404467       14.8400453543       34.4210247471
  H        -2.6033032405       12.7115130168       35.1059740226
  C         4.4205297463        8.6252126990       12.5965299607
  N         4.2070200162        7.2390082190       12.5555164509
  O         3.5300619982        5.5485247304       13.9311043779
  H         4.4571080439        8.5694669348       32.2766037000
  H         5.7661838900        9.7038361350       32.0515137432
  C         5.7458708883        8.0974193682       30.7107734043
  H        -5.5767088817        8.6084481342       25.5823272021
  H        -6.3870701323        8.1430992970       27.0581217014
  C        -7.2491738686        9.9225215160       26.0785578155
  C        -2.8638311168       15.5422605375       35.6368925138
  S         4.9151804285        9.4171003852       11.1449263028
  C         4.4516568809        6.4955717169       11.3067324710
  H         5.4827458979        7.9760225742       29.6538374384
  H         6.7330260760        8.5727451312       30.5147538101
  C         6.1926517896        6.8836790067       31.4910055521
  H        -7.0047569701       10.5145065145       25.1823523918
  H        -7.2089567924       10.6911253241       26.8344786671
  C        -8.6570853389        9.2413293123       25.8519229206
  H        -2.4396326232       16.5169205375       35.5465302244
  C        -3.4664460415       15.2206582097       36.8473077608
  H         5.1826151037        6.8914147296       10.6946650091
  H         4.7842618875        5.4812050052       11.4963651419
  C         3.1121218777        6.3319267394       10.5979565089
  H         6.3312591958        7.2245433909       32.4995442743
  H         7.1484726602        6.5450119597       31.1342345131
  C         5.2616365095        5.6580248665       31.5238532996
  H        -8.8816797459        9.0407335560       24.8492238172
  H        -8.7487431588        8.2606128804       26.2828332928
  C        -9.7348814220       10.1891204959       26.3532060951
  S        -4.1309773059       13.7253879276       37.2697435793
  C        -3.4859936779       16.3141510144       37.8161151237
  H         2.9419078212        7.0030734421        9.7446554634
  H         2.9233839255        5.3334480984       10.1708040238
  H         2.2444068281        6.6234568948       11.2605689746
  H         4.7833098550        5.7304685350       30.5545916293
  H         4.4571352273        5.7723476597       32.2774420966
  H         5.6739536883        4.6583968627       31.5424402704
  H       -10.7083549933        9.8004448933       26.0673852013
  H        -9.5202187791       11.1657526994       25.8919204776
  H        -9.6108368442       10.3848584535       27.4247466626
  C        -4.5075637387       14.6171224143       38.7639621975
  N        -4.2120410990       15.9361294913       38.8501978797
  O        -3.0025427282       17.4219530647       37.5895500586
  S        -5.4254275163       13.8213778673       40.0119551524
  C        -4.4376394073       16.8245369997       39.9527450155
  H        -4.3797696728       17.8770610038       39.6359781032
  H        -5.4531138790       16.7194135255       40.2589885858
  C        -3.4370713680       16.6058709799       41.0481346415
  H        -3.8493250680       15.7806523693       41.5946707218
  H        -2.5002049248       16.4120050182       40.5919942587
  H        -3.3081626010       17.4315719989       41.8048485530
