352
 i =    16000, time =    16000.000, E =        24.1278871914
  H        11.5015739015        6.3612052910       32.9755550150
  C        11.5838971627        5.3254612379       32.6085090124
  H        12.5672658021        5.1879460569       32.1501339268
  C        10.5411619809        4.9568561172       31.5461059655
  C        11.2776951481        4.5081284289       33.8635389412
  C        10.7000598449        5.6995758588       30.2447275657
  H        10.6431974544        3.8838859551       31.3380900131
  H         9.4682162494        5.1243710501       31.8574264531
  H        11.9017936210        3.6201121497       34.0288570899
  H        11.3907148103        5.0266559413       34.7824963701
  H        10.1817784055        4.2553441037       33.7755742551
  C         9.8358598134        5.2185200608       29.0939457417
  H        11.6712036041        5.4762921620       29.8659412752
  H        10.7217689649        6.7925360107       30.4247179494
  C        10.5427502335        5.1349647455       27.7022332042
  H         9.4209518708        4.2961424325       29.4276573498
  H         8.9932670620        5.8542288111       28.9159974249
  C         9.6234758377        4.5844974045       26.6436040002
  H        11.3577339135        4.4118368065       27.6899440368
  H        11.0204789290        6.0823556873       27.3953347337
  C         8.6020566801        5.6320676659       26.0528216824
  H        10.1940487058        4.0160654225       25.9016991287
  H         9.1508231735        3.8524780916       27.2475916229
  C         7.4223180216        4.9054281929       25.3500487000
  H         8.1661213886        6.3065950433       26.8280276957
  H         9.1502237054        6.2799244533       25.3019057623
  C         7.1507243478        3.5362064348       25.9694331213
  C         7.9589629868        4.2258514818       24.1422345904
  C         6.1623422724        5.7095781182       25.0356282633
  C         7.4525135391        2.4478151636       25.1578304756
  C         6.6055963140        3.1410165266       27.2023494607
  C         8.0159248550        2.8935086015       23.9805650268
  C         8.4822122448        4.9243268537       23.0350179440
  H         6.2341478198        6.3730545667       24.1992874807
  H         5.9775938284        6.4527100878       25.7962094794
  C         4.8623450085        4.8972890878       24.6288043587
  S         7.0128646376        0.9312795551       25.8072464515
  C         6.5335167253        1.7582943721       27.2343180237
  H         6.2568129642        3.9243978586       27.9131009030
  C         8.5354576742        2.3325701272       22.8808154851
  H         8.4945262982        6.0072537517       23.1585091383
  C         8.8870284026        4.3782639127       21.8491140847
  H         4.9722112755        4.4664382208       23.6114057736
  H         4.7982844339        4.1089934960       25.3704024187
  C         3.5382170804        5.7068628900       24.6433911711
  C         6.1489512195        1.0321120891       28.4973126954
  C         8.8784717156        3.0425009819       21.7387111794
  H         8.5155866016        1.2616025352       22.8316469630
  C         9.2349228213        4.7775866793       20.5988829119
  H         2.8201637744        5.3076593830       23.8681636524
  H         3.7666118241        6.7830952295       24.2776415945
  C         2.8725966794        5.8876936499       26.0562379359
  C         6.1449633936       -0.3408055256       28.7107685231
  C         5.6782859945        1.8257209461       29.6725889618
  C         9.2509195954        2.3510612240       20.4653831320
  C         9.4954341672        3.7076626261       19.7574943239
  S         9.3315068422        6.3132417363       19.8066301590
  H         2.0681513798        6.6963571408       26.0612901142
  H         3.6077903821        6.0687640143       26.7897866551
  C         2.1082595034        4.6435027650       26.4963319745
  N         6.5297026659       -1.2641345395       27.6820178620
  C         5.8533979278       -0.9512493866       29.9084923826
  C         5.3127892984        1.2057796233       30.8747368890
  H         5.5860882568        2.9014214103       29.5144370827
  C         8.0727605610        1.6351222710       19.7213576861
  C        10.5256466686        1.5007400351       20.6127745260
  C         9.8949560044        4.1562362704       18.4715999682
  C         9.8172594144        5.5310419026       18.3605832830
  H         1.2127959977        4.3679144306       25.9010492090
  H         2.7727383885        3.8012216310       26.3125709402
  C         1.5835557615        4.7741691217       27.9599627689
  S         6.5051378322       -2.7391087347       28.3526901662
  N         5.9010994778       -2.3444620904       29.8056029272
  C         5.4076902495       -0.2529141030       31.0698682053
  H         4.9498529599        1.7965012145       31.6831722074
  H         7.6817943345        0.8767127976       20.3263873222
  H         8.4400515157        1.1735306531       18.8068593121
  C         6.7642133987        2.4738290670       19.5267885734
  H        10.7763079625        1.2784554923       19.5929681569
  H        10.4412878095        0.5951744851       21.2154506245
  C        11.7746697287        2.2432581955       21.1043945193
  H        10.1829554549        3.4194902453       17.6988525161
  C        10.0497367128        6.3089096865       17.1453913265
  H         1.0007773186        3.7963830993       28.0847144944
  H         0.8997201548        5.5797647395       28.1487076339
  C         2.6479397831        4.9748318109       28.9725206233
  C         5.1858792323       -0.9589352988       32.3092927377
  H         6.9002838840        3.5122840706       19.1996212949
  H         6.3041129244        2.5980593756       20.4932016711
  C         5.7958062798        1.8435339820       18.5315110575
  H        11.5847045856        2.8352098300       21.9825451892
  H        12.1192357486        2.9765728406       20.3433768902
  C        12.9963792636        1.3393161183       21.3928189975
  C        10.1352250376        7.6805740212       16.9918501707
  C        10.0824793897        5.5224585325       15.8528971043
  H         3.4570414041        4.1936296946       28.8703918003
  H         2.9907062848        5.9741829951       28.8782455507
  C         2.0894516450        4.9873686897       30.3841700511
  H         5.5966356534       -1.9484381333       32.4504050625
  C         4.7827159300       -0.4939795994       33.5434853853
  H         5.8984215464        0.7458386679       18.4428739773
  H         5.9967487471        2.1827578845       17.4952961598
  C         4.3762400114        2.3189094015       18.6472098491
  H        12.8273513979        0.8090092363       22.3241599147
  H        12.9750224348        0.4876032323       20.6670946413
  C        14.3327083955        2.1406968088       21.3472624351
  N         9.8597012642        8.6147771081       17.9637046444
  C        10.3613276189        8.3186444046       15.7933177599
  C        10.3920444512        6.1711131666       14.6588442927
  H         9.6974601161        4.5185642357       15.8531510332
  H         1.4082533190        5.8762523289       30.5020164928
  H         1.4985369352        4.0629495409       30.5616246080
  H         2.8229315142        5.2342204948       31.1159754488
  S         4.1924501545        1.1028484575       33.9135875237
  C         4.7495665530       -1.4880017445       34.6933512240
  H         4.3671912019        3.0507715196       19.4184862925
  H         4.1735160290        2.8010108698       17.7510761301
  C         3.3810319200        1.1944378978       18.9776268018
  H        14.2397485078        2.9234655960       20.5899130274
  H        15.1198267946        1.4666356927       20.9300752705
  C        14.6849101122        2.7680227094       22.6651215545
  S        10.0453703781       10.0917535610       17.3893265362
  N        10.3492949288        9.6641967175       15.8483550069
  C        10.5867491282        7.6521487386       14.5843769848
  H        10.4090866835        5.5288247834       13.7872340227
  C         4.0400580818        0.4441391186       35.6210515787
  N         4.3525207499       -0.8504606553       35.8422779117
  O         5.0722691918       -2.6422277081       34.5903799624
  H         2.4869509262        1.7159280454       19.2105272529
  H         3.7130856490        0.7204489410       19.9239741785
  C         3.2074210228        0.2201279486       17.8456490397
  H        15.4451041714        3.5113331133       22.5515588133
  H        13.8087520270        3.2890344076       23.0134854287
  C        15.1966494118        1.7236636979       23.7202674397
  C        10.8174070044        8.4495346259       13.4164661100
  S         3.5222902624        1.3408331257       37.0062817195
  C         4.4319948678       -1.5663246681       37.1251881248
  H         2.5777380992        0.6802746061       17.0562064681
  H         4.1500058800       -0.0717519309       17.2177170543
  C         2.5639651618       -1.1279232891       18.2975596428
  H        14.8894996561        0.7286639539       23.4531324844
  H        14.5619618801        1.9154921492       24.5900240840
  C        16.7031565099        1.8653793474       24.0529008132
  H        10.3813439788        9.4472421984       13.4193123825
  C        11.4298479697        8.1446859831       12.1932107563
  H         3.6410483540       -1.2578799263       37.8626660261
  H         4.2489145375       -2.6551275036       36.8976845364
  C         5.9176364713       -1.7124835847       37.5741312614
  H         1.6643974704       -0.8922463736       18.8623432079
  H         3.3107903497       -1.7370831029       18.8664613450
  C         2.0057884339       -1.9026896791       17.0591149651
  H        16.9705026769        2.8749388509       24.4117313604
  H        16.8301661370        1.0923371018       24.8516922270
  C        17.6726976156        1.6626527777       22.8592063235
  S        12.2277086522        6.7175352052       11.7163141988
  C        11.4488471572        9.2260751917       11.1150982315
  H         5.9015164711       -2.4990876588       38.3307962452
  H         6.6965453434       -1.8645401766       36.7953817458
  H         6.2737195954       -0.8378225894       38.1621714942
  H         1.4319959863       -1.2948553304       16.2735018383
  H         1.3400780729       -2.6397402642       17.4097617891
  H         2.8276858120       -2.3935787153       16.4651593984
  H        18.7637606974        1.6231528119       23.1496964837
  H        17.6777741854        2.4973080196       22.1948653920
  H        17.3566609266        0.8306881262       22.2778866664
  C        12.4128569863        7.4411314985       10.0840543255
  N        12.0327942354        8.7619983617       10.0262613795
  O        11.0097495630       10.3678666916       11.2892253971
  S        13.2585509148        6.6310375446        8.7418954062
  C        12.1504131380        9.5960493354        8.8180942433
  H        12.3018997056       10.6149389705        9.1218485797
  H        13.1425887652        9.4358984514        8.3026941764
  C        11.0291109730        9.4808392575        7.7303714047
  H        10.0983527041        9.2904388427        8.2633047117
  H        10.9416278643       10.4295259181        7.0966334266
  H        11.1898685051        8.6390967765        7.0955102856
  H        -2.5389892501       14.9069159491       15.9948416215
  C        -3.1887195039       14.0104336715       16.2608175893
  H        -4.1859484509       14.4286756557       16.4909300605
  C        -2.4560788485       13.2767222842       17.4776841310
  C        -3.2358432176       13.1612525152       15.0379071930
  C        -2.3770018276       14.1515598646       18.7167867463
  H        -3.0040789092       12.4336210788       17.8277328164
  H        -1.4548566206       12.9669561712       17.1210044976
  H        -2.7839721800       13.7785548971       14.2426446596
  H        -2.7017470157       12.2312378868       15.0420861916
  H        -4.2190746140       13.0221653050       14.5415153842
  C        -1.5144396297       13.4335421494       19.7113561624
  H        -3.3790888302       14.2729710905       19.1672854192
  H        -1.8378050036       15.1189892289       18.4940638038
  C        -2.0512339414       13.2909611243       21.1800768884
  H        -1.2585100195       12.4353036054       19.3868000017
  H        -0.5721657601       13.9688964422       19.7063861864
  C        -1.0261145968       12.5003707590       22.0975466980
  H        -3.0174940570       12.7662352848       21.3755623306
  H        -2.2820295755       14.2724224035       21.6102037216
  C         0.1522122495       13.3478931626       22.5056946851
  H        -1.3951429603       12.0719151044       22.9852820244
  H        -0.6939850990       11.6922796024       21.5777850682
  C         1.2575643111       12.6133739609       23.0507928827
  H         0.6313956569       13.7930585570       21.6276280087
  H        -0.1555080231       14.2145472150       23.0485995546
  C         1.6113478832       11.2551029831       22.3935027232
  C         0.8394519780       11.8294827904       24.2747857483
  C         2.5874744298       13.5255405686       23.2556100553
  C         1.2482936532       10.1452332009       23.1511446238
  C         2.1461750341       10.9245116950       21.1490734288
  C         0.7246641036       10.5124118532       24.3845917769
  C         0.4665611621       12.5604254672       25.4502891812
  H         2.9485712143       14.0030519149       22.3333650589
  H         2.2267155317       14.3646538971       23.9214414950
  C         3.8561981436       12.8932258403       23.9200336184
  S         1.7332727344        8.6760008217       22.4446836017
  C         2.2732833378        9.5411007796       21.0740949315
  H         2.3631570205       11.7065963949       20.4617311306
  C         0.2879288354        9.9202824125       25.4998438944
  H         0.6117999677       13.6723774073       25.3763758128
  C         0.0958570407       12.0151772719       26.6099618902
  H         4.0219368782       11.9954247054       23.3636733399
  H         3.6051300077       12.4906068429       24.8804394099
  C         5.0369229091       13.8766199423       23.9104291017
  C         2.6261977014        8.9049135348       19.7781209982
  C        -0.0084362297       10.6727661317       26.6968977494
  H         0.2535111713        8.7709253043       25.5014009621
  C        -0.3431603878       12.4446484461       27.8589276872
  H         5.8234074553       13.4785769998       24.5993706282
  H         4.7630758642       14.9384935807       24.2017090068
  C         5.6563486895       14.0530685780       22.4977165477
  C         2.5698156080        7.5120937536       19.5473068267
  C         3.1279821642        9.8204682925       18.6586711669
  C        -0.4821575631       10.0267168428       28.0024120470
  C        -0.6389823585       11.3753608113       28.7275564867
  S        -0.6112311534       13.9801391354       28.5442413080
  H         6.6568778991       14.4624266351       22.7699797339
  H         5.0290821278       14.6990887990       21.8898102469
  C         5.9109655201       12.7477466959       21.7643923763
  N         2.2357361869        6.4724893686       20.4822386346
  C         2.9614486201        7.0657662460       18.3102279524
  C         3.3236695976        9.3486325072       17.3575663371
  H         3.2715948963       10.8678153790       18.8042424444
  C         0.5755324759        9.1653915474       28.7725123294
  C        -1.8577537268        9.2640717670       27.7502231556
  C        -0.8865390340       11.8098946490       30.0218811279
  C        -0.9563388273       13.1773659118       30.0868943731
  H         6.5321453911       12.0818127154       22.4187929200
  H         5.0028585145       12.1957701687       21.5347746257
  C         6.8297114049       12.9091016821       20.5184872694
  S         2.3267236624        5.1230239295       19.6912260983
  N         2.9278128069        5.6870962099       18.2717232444
  C         3.2469916524        7.8425129184       17.0989174691
  H         3.7671488467       10.0420944094       16.6206381975
  H         0.9319170539        8.3692048830       28.1562114246
  H         0.0568156176        8.7034503974       29.5860917561
  C         1.8713202058        9.8610447813       29.3189413393
  H        -1.6967509161        8.4590252614       27.0215704352
  H        -2.0995959915        8.8373632679       28.7878335535
  C        -2.9294842424       10.1742455578       27.2378854528
  H        -1.0246764353       11.1272663992       30.7871054400
  C        -1.4365226273       13.9342065819       31.2826857507
  H         7.1107679622       11.8774448691       20.2731340945
  H         7.7190249776       13.5169658029       20.7106449680
  C         6.0179637043       13.4086534701       19.3826920710
  C         3.3442340048        7.1820280490       15.7891163740
  H         2.5094787363       10.2003883377       28.5070289202
  H         1.6256900912       10.7379301696       30.0244543816
  C         2.6572248694        8.9839854012       30.3226466031
  H        -2.8341931824       10.5598118310       26.2022086469
  H        -2.9601405835       11.0471685782       27.9237818286
  C        -4.1853784098        9.3939169315       27.3463672791
  C        -1.5228084405       15.3728787576       31.4067094226
  C        -1.5443084789       13.1620162582       32.5183093190
  H         5.0580524903       12.8088865916       19.1544373075
  H         5.7751364081       14.4017891051       19.6396659577
  C         6.8619959836       13.3655642941       18.1438626392
  H         3.1021154507        6.1885792154       15.7668271520
  C         3.6421344700        7.6650642812       14.5503238133
  H         2.9138480951        8.1076840829       29.7607616429
  H         2.1563945420        8.6628725498       31.1695061608
  C         3.9065243613        9.6885262891       30.8877182354
  H        -4.2402359134        8.7044284760       26.4616736710
  H        -4.3104618693        8.8398697237       28.2774702560
  C        -5.4461341901       10.2947489283       27.1805208714
  N        -1.1805143075       16.2449974924       30.4034036729
  C        -1.7921562156       16.0417873026       32.5918821313
  C        -1.8923926985       13.8874900910       33.6985979229
  H        -1.3999662766       12.0959866527       32.5487527652
  H         7.6859100947       12.6604304876       18.2687572213
  H         6.2720588418       13.1401063741       17.2794977270
  H         7.3407743719       14.3162172734       17.9341343669
  S         3.9103969660        9.3303418512       14.1083586210
  C         3.6597921095        6.6529243867       13.4279249446
  H         3.9777112840       10.6592154464       30.4570165143
  H         3.8814877483       10.0154816096       31.9161354063
  C         5.1644702339        8.7950498871       30.7410205530
  H        -5.2261622417       11.0983792313       26.4688876769
  H        -5.6398070199       10.8204422623       28.1187975676
  C        -6.7018507267        9.4163820469       26.8008515233
  S        -1.2662462793       17.7875656428       30.9214559045
  N        -1.7557551003       17.4691151909       32.3902009641
  C        -2.0747014293       15.3869245954       33.7976197267
  H        -1.9692414632       13.2927669176       34.6147203689
  C         3.9962575516        8.7062154338       12.4470025791
  N         3.9438691366        7.3643730044       12.2943911622
  O         3.5629991591        5.4327622780       13.6435548834
  H         6.0522481772        9.3381730276       31.0376925692
  H         5.3463452842        8.5775696282       29.6730070085
  C         5.1215750510        7.5036408410       31.6220945219
  H        -6.5294109858        8.9437484975       25.8086423540
  H        -6.9351745582        8.6625303489       27.5753324168
  C        -7.9516648418       10.2587808593       26.7041116740
  C        -2.5069687741       16.1000826224       35.0349569584
  S         4.5507502389        9.7175553556       11.0845837486
  C         4.0156099273        6.6062393708       11.0725351271
  H         5.2459480575        7.8097492120       32.6302047743
  H         4.1796120044        6.9131638206       31.5431716341
  C         6.4237596580        6.6345883481       31.3561752393
  H        -7.7506721483       11.3201328033       26.4243853501
  H        -8.2501296879       10.2640593208       27.7810833748
  C        -8.9929225039        9.7181330495       25.7900152665
  H        -2.4766051345       17.1269809358       34.8261764110
  C        -3.0798556526       15.6975238735       36.2335477828
  H         4.6436939108        7.0583546751       10.3003160932
  H         4.5195663843        5.6777810830       11.2154807924
  C         2.6220587484        6.4835382451       10.4595762101
  H         7.2568217074        7.1317521309       31.7722062960
  H         6.5116961433        6.6000519986       30.2881464833
  C         6.3958653612        5.2136218192       32.0021641793
  H        -9.0403367524        8.6337918387       26.0010472462
  H        -9.9820260234       10.2069001485       25.9476400249
  C        -8.6452728249        9.9469074641       24.2589364908
  S        -3.5494452649       14.2111682537       36.8362429661
  C        -3.0914489721       16.8334079276       37.2752894873
  H         1.9858487363        7.2933484754       10.6874209879
  H         2.6206529056        6.4452601074        9.3337369939
  H         2.0972325613        5.6223259139       10.7726724599
  H         7.2660869709        4.6317392626       31.8534733738
  H         5.4000518199        4.6207139394       31.8739351209
  H         6.4519810307        5.4018796820       33.0430795904
  H        -8.3370848111        9.0183642080       23.8236593118
  H        -7.9083285844       10.7029547787       24.1619179621
  H        -9.5895267138       10.1963281416       23.8108961135
  C        -3.9670169475       14.9611846860       38.3753011824
  N        -3.6612926901       16.2893010494       38.4068812244
  O        -2.7627111507       18.0174346099       37.1001533420
  S        -4.4078426274       14.0140075074       39.8125842172
  C        -3.9589104562       17.0716477497       39.5785061154
  H        -3.8151036605       18.1624661790       39.5036363686
  H        -4.9821259243       16.9846530569       39.8873111460
  C        -2.8668919975       16.7487541895       40.6792879345
  H        -2.4275118265       17.7284240935       40.9884398773
  H        -3.3309022663       16.2655092868       41.5907642518
  H        -2.0452746537       16.1665443302       40.2603171259
