352
 i =      800, time =      800.000, E =        53.0259779795
  H        12.0423899226        6.7587682386       32.4688472351
  C        11.5778024785        5.7407982023       32.5154718586
  H        12.3204493995        5.1523179576       32.2459055234
  C        10.4319904421        5.6449750110       31.4410087534
  C        11.1668751955        5.3520257377       33.9775963436
  C        10.9558603031        6.1219906283       30.0573799233
  H        10.0397128009        4.6599938066       31.4280885426
  H         9.5342092865        6.2283202720       31.6767465608
  H        11.9465895779        5.4075455379       34.6002044670
  H        10.4675655186        6.0473608188       34.3332081786
  H        10.8965935649        4.3731114336       34.0078516672
  C        10.0646240092        5.5627964180       29.0329038267
  H        11.8679225621        5.6159787267       30.0806358118
  H        11.1985669314        7.1763509448       29.9938002859
  C        10.5827957234        5.9592564194       27.6338392455
  H         9.9135251808        4.5409940212       29.0847207324
  H         9.1441941706        5.9298917822       29.1953577358
  C         9.6079179748        5.3144827745       26.5321077954
  H        11.6701919425        5.5938287623       27.3920137748
  H        10.3833762176        7.1083680637       27.5527574127
  C         8.3728503014        6.1800997994       26.1813142914
  H        10.3280968014        5.2175866968       25.7006197078
  H         9.4627225690        4.2190540877       26.9859818752
  C         7.2494966990        5.3808179970       25.5323864638
  H         7.8614116537        6.6037700449       27.0449204114
  H         8.6075954518        7.0367449199       25.4345014312
  C         7.0265632118        4.0133919259       26.1391846516
  C         7.6991939181        4.6544201293       24.2814108827
  C         5.9710038656        6.1802330642       25.1996523223
  C         7.2305846243        2.8740904467       25.3359381723
  C         6.5671339597        3.6394615410       27.4953396106
  C         7.7104810955        3.2877947406       24.1262052201
  C         8.1908517905        5.2559905116       23.0766875219
  H         6.1312200554        6.7642669528       24.2561573949
  H         5.7309792231        6.7359021426       26.0809622112
  C         4.7663497575        5.3224011183       24.7821296094
  S         6.6114126945        1.3953998406       26.0971173571
  C         6.4298811129        2.2416688348       27.5986954128
  H         6.4763228219        4.4416142124       28.1510362838
  C         8.0545929028        2.6679536451       22.9546001036
  H         8.3546864642        6.2445646256       23.0543898801
  C         8.5971765083        4.5906913333       21.9365384391
  H         5.0486373725        4.8785225069       23.7776237458
  H         4.5610884117        4.4026365196       25.3345127489
  C         3.4701659409        6.0359895087       24.7359404845
  C         5.9774077981        1.5931965456       28.7865157056
  C         8.4719256499        3.2916096398       21.8065538686
  H         7.8881400193        1.6837969245       22.9331908766
  C         9.0950035363        4.9472343014       20.7551388522
  H         2.6690842430        5.6237285706       24.0173953053
  H         3.6557087710        7.0260547138       24.3273355733
  C         2.8604413242        6.1105960713       26.0833572671
  C         6.0684839437        0.1994307783       29.0926118938
  C         5.5153648368        2.4193187025       29.9920758795
  C         9.0082060671        2.5543698192       20.6179726374
  C         9.2539506934        3.8576289535       19.9108956804
  S         9.4368899503        6.4644267322       20.0073968220
  H         2.2753776317        6.9945467262       25.9903245203
  H         3.5415649236        6.3205517620       26.8609243788
  C         1.8624545761        4.9774801012       26.4437698533
  N         6.4665088971       -0.7936227356       28.1556655080
  C         5.6753475839       -0.4162301404       30.3084182171
  C         5.2308397256        1.7650296047       31.2005433299
  H         5.4772520394        3.4517753770       29.8951671843
  C         7.9277094444        1.7826998298       19.9418057852
  C        10.2695810097        1.8120483462       20.8620014231
  C         9.5200425656        4.3258348355       18.5917279022
  C         9.5497712327        5.6686758597       18.4631044803
  H         1.1295542552        4.8755031847       25.6570855524
  H         2.3936280373        4.0874968375       26.5367569666
  C         0.9455393479        5.4026342317       27.5665483305
  S         6.2463464289       -2.2747600322       28.9008932222
  N         5.8162174463       -1.7929781242       30.3792303545
  C         5.2995427747        0.3328501444       31.4260062002
  H         4.8124022106        2.4491993122       31.9134065147
  H         7.3211726243        1.2395014639       20.6235386585
  H         8.4045836644        1.1393224185       19.3094867738
  C         6.9080157045        2.5857245177       19.1247239580
  H        10.6743286301        1.4413397697       19.9567101542
  H        10.0874106002        1.0126068302       21.5337393132
  C        11.4252257566        2.5409189805       21.5373521778
  H         9.6527493109        3.6408713747       17.7244452400
  C         9.8893614724        6.3385779585       17.1612610381
  H         0.1097102426        4.7277581463       27.8257022848
  H         0.5128084492        6.3513432928       27.3604730771
  C         1.7120386886        5.4502838079       28.9178299686
  C         5.0228685175       -0.3825737127       32.7051116623
  H         7.2285212040        2.8192272709       18.0521238411
  H         6.4930560166        3.5361568947       19.5457225832
  C         5.7223526850        1.7725883589       18.7400456597
  H        11.1741977369        2.9006031853       22.6397104165
  H        11.7743332798        3.4877593604       20.9356483221
  C        12.7541344845        1.7248766930       21.6238996490
  C        10.0970274534        7.6987906167       17.0157365469
  C        10.0474143226        5.5968600284       15.9261327725
  H         2.5579309126        4.6554182293       29.0105867429
  H         2.4254037339        6.2407418734       28.8739348119
  C         0.9727876886        5.5996444818       30.2653517733
  H         5.2750739448       -1.3823225896       32.5935742652
  C         4.6355506115        0.0268299618       33.9964539162
  H         5.2916425956        1.1580770279       19.4196885387
  H         6.0707711632        1.1217586005       18.0166018205
  C         4.5635465177        2.4268242296       18.0525837830
  H        12.5581496498        0.8445534599       22.2865805497
  H        12.9179193248        1.2519969486       20.6077338900
  C        13.9388149013        2.4652200334       22.2380924813
  N        10.0535720727        8.6342230222       18.1189597200
  C        10.3370927297        8.3482677539       15.8658085510
  C        10.4282688690        6.1566687611       14.7548612673
  H         9.8990326694        4.5656437346       15.9876295848
  H         1.5455268696        5.8885086676       30.9585798426
  H         0.1966947236        6.2315336961       30.2554596054
  H         0.5372399140        4.6485929226       30.5133611551
  S         4.2000267276        1.5887008515       34.5672791978
  C         4.7177414304       -1.0059523694       35.0222421559
  H         4.3356890540        3.3404251587       18.7731571069
  H         4.7413098180        2.7117385804       16.9705377941
  C         3.1521231450        1.6661211139       18.2141952931
  H        13.6489218879        3.1208072081       23.1662310033
  H        14.4359478924        2.9825337647       21.4457858188
  C        15.1400526560        1.5311731531       22.6611945487
  S        10.0512154596       10.1259128323       17.5364834143
  N        10.3201757552        9.8143575804       15.9294958111
  C        10.6452450368        7.6696633216       14.6516329477
  H        10.6303483242        5.6898521241       13.8563173734
  C         4.0620376852        0.9276783245       36.1012705995
  N         4.1537826467       -0.5256560636       36.1857436928
  O         5.0499124260       -2.1666827363       34.8133949488
  H         2.3817560389        2.4416367982       18.0082359672
  H         3.0618327226        1.4021155443       19.2452912561
  C         2.8349649502        0.3896380668       17.3559147500
  H        14.8960170849        0.9601258381       23.4956799279
  H        15.4742422416        1.0749362099       21.7748384035
  C        16.2247462788        2.4821996516       23.1908014932
  C        10.9942660766        8.4474415541       13.4833499221
  S         3.6646939517        1.7659155617       37.5747823276
  C         4.0330803062       -1.2888088815       37.4098395907
  H         2.3226231288        0.6216886307       16.5295961275
  H         3.7679352236       -0.1047452985       17.0674221295
  C         2.0961763724       -0.5726045515       18.2965171570
  H        16.0013530698        2.6269476839       24.2918319180
  H        16.1105860430        3.4452461382       22.6149117804
  C        17.7372460008        2.0672564336       23.1366600092
  H        10.8858378882        9.4694304763       13.7274143075
  C        11.5652844602        8.0442386439       12.2983194150
  H         3.1102380272       -0.9537542028       38.0403154476
  H         3.8623461597       -2.2689366333       36.9621652500
  C         5.2906712817       -1.3095780503       38.2873255144
  H         1.0329436357       -0.2624963766       18.4601537520
  H         2.7661344005       -0.6634297124       19.2165448131
  C         2.0457091812       -2.0390627054       17.6651101493
  H        18.3001205760        2.6449553410       23.7339314765
  H        17.8826676508        1.0239852162       23.3837589206
  C        18.3845522376        2.4055328841       21.8739495997
  S        12.1719317351        6.4946079931       11.8701888926
  C        11.7210339991        9.1132445899       11.2665550441
  H         5.4052937647       -0.4381475194       38.9780516009
  H         5.5827866848       -2.2896533480       38.6634750414
  H         6.1439321335       -0.9837110242       37.8219523443
  H         1.6736885962       -2.6791923448       18.4719708932
  H         3.0777099385       -2.2936347064       17.2979949495
  H         1.3339814486       -2.0303311851       16.8670565817
  H        18.8961807566        1.4824901510       21.4729752394
  H        19.0916911682        3.1436390476       22.0475479933
  H        17.6046501241        2.6843942341       21.1716302938
  C        12.5702112947        7.2976756832       10.3361841822
  N        12.4950997996        8.6905451533       10.2277935476
  O        11.3251355640       10.2713891589       11.4382719248
  S        13.5288290585        6.4899782233        9.0489288752
  C        12.5155462863        9.4727694650        9.1162716125
  H        12.7398703597       10.5360722727        9.2522028843
  H        13.3013611857        9.3210098551        8.2983499389
  C        11.2771713659        9.3863392968        8.2898832031
  H        10.3830399886        9.8212771535        8.8670649779
  H        11.3749187680       10.0583186308        7.5152844859
  H        11.0707582462        8.4126708323        7.8232489806
  H        -3.3369035610       15.6446579903       16.2610486732
  C        -3.1608982540       14.5769971502       16.3277838785
  H        -4.1905399794       14.2578573244       16.5103402958
  C        -2.1245234018       14.1515201991       17.4229072877
  C        -2.8532018645       14.1344343039       14.9298342773
  C        -2.5699210622       14.1531187269       18.8743399088
  H        -1.9098587296       13.1837088883       17.0505182060
  H        -1.3153627430       14.7943054179       17.2268494425
  H        -3.4984736402       14.3000647685       14.0946250649
  H        -1.9341031477       14.6372842465       14.4733504852
  H        -2.4310709430       13.1644612665       14.6732784664
  C        -1.4893050263       13.5930127782       19.9059474447
  H        -3.4668125644       13.5405319242       18.9514926239
  H        -2.8273741389       15.1161926809       19.1972522799
  C        -2.0885337058       13.5091663264       21.3883775289
  H        -1.0820241655       12.5669044080       19.6882616351
  H        -0.8233150909       14.4312453129       19.9693772376
  C        -1.1200467489       12.9698832647       22.3802383842
  H        -2.9038329132       12.7949377515       21.3299472978
  H        -2.2965548646       14.4828346477       21.8113517507
  C         0.1966135842       13.7664972617       22.6070979280
  H        -1.5566856113       12.7109218221       23.4326988770
  H        -0.8828605137       11.9507850106       22.1407848813
  C         1.2777062787       13.1187098444       23.3804903829
  H         0.6096093230       14.0734515176       21.6239171532
  H         0.1097780763       14.7322581274       23.1594533201
  C         1.6388073997       11.7845893399       22.6118277695
  C         0.9096169740       12.3008741787       24.5118402547
  C         2.4882976591       13.9829569659       23.4435185055
  C         1.4050829622       10.6305992899       23.4094046441
  C         2.3087091027       11.4204352649       21.4270259636
  C         0.9247716866       10.9621397120       24.6257360872
  C         0.4098395490       12.9730455316       25.6643235304
  H         2.6191181068       14.4833135172       22.4823543747
  H         2.3388950795       14.8909627108       24.0388586186
  C         3.8112156762       13.3115827961       23.8365916369
  S         1.7951285061        9.1334327256       22.5847718645
  C         2.3089883137       10.0676724826       21.2028608375
  H         2.4155792746       12.3048554204       20.6963933945
  C         0.5088881638       10.3770331272       25.7801014407
  H         0.3619352191       13.9937401291       25.6914631119
  C        -0.0026031002       12.3362281908       26.8630097936
  H         4.2478639181       12.5467658693       23.2422500278
  H         3.5636995305       12.9112124821       24.8033236098
  C         5.0592183749       14.1974000892       24.1065456083
  C         2.5614499303        9.4112407191       19.9001806612
  C        -0.0083498144       11.0098518381       26.9051025394
  H         0.5585458201        9.4015348422       25.7869748996
  C        -0.3273435646       12.7064595746       28.0788687505
  H         5.6211646672       13.6111325022       24.9682951842
  H         4.5208321832       15.0996031067       24.5994526530
  C         5.7533024267       14.5639246576       22.7961381857
  C         2.5335142325        8.0426810244       19.5820211809
  C         3.0315750181       10.2159129555       18.6840034000
  C        -0.4181478060       10.2568813162       28.1463113366
  C        -0.5834826840       11.5720364888       28.8492763682
  S        -0.5577183417       14.2116412941       28.9253598082
  H         6.3522256488       15.4242117855       23.2019114243
  H         5.1576965557       14.7115608658       21.9615418972
  C         6.7047952340       13.4884768796       22.2307862616
  N         2.0536816812        6.9706481814       20.4559771240
  C         2.8788620033        7.4739622342       18.3809929656
  C         3.4277601875        9.6090158526       17.4992994634
  H         3.0586819906       11.2286922950       18.7891522033
  C         0.6039904787        9.3401803794       28.7332425324
  C        -1.7966008832        9.5442087773       27.9829344118
  C        -1.0394805931       11.9067041348       30.1602134067
  C        -1.0973757273       13.2966669059       30.2871047063
  H         7.4089197623       13.2629767922       23.0039201212
  H         6.1628329352       12.6103780964       22.1578921595
  C         7.4819702151       13.9167299700       21.0328796108
  S         2.3661730742        5.5757328012       19.7756485200
  N         2.8967231328        6.0373859123       18.3312495014
  C         3.3316125234        8.1558758648       17.3024976814
  H         3.9772538007       10.1440356673       16.7106440607
  H         0.9277888243        8.5577078946       28.1355904764
  H         0.2330158711        8.8969935819       29.6764617406
  C         1.9204421906       10.1334736112       29.2477957309
  H        -1.5929554406        8.8928811276       27.0975638606
  H        -1.9825307766        8.9407038294       28.9402678369
  C        -2.9295122281       10.4673580225       27.4829154024
  H        -1.2918328419       11.2001762394       30.9194587849
  C        -1.3558115302       13.9854196580       31.6172197899
  H         8.4822651802       13.4971229537       20.8449258972
  H         7.6300556070       14.9081853183       21.2381629187
  C         6.6565926529       13.7801742263       19.6857700860
  C         3.5889446438        7.4440679415       16.0779552201
  H         2.3844186766       10.5673390759       28.4399172270
  H         1.7323104339       10.8495735205       30.0679366524
  C         2.9508307825        9.1279079897       29.9562901134
  H        -2.7658919123       11.1365746281       26.7000663362
  H        -3.4136542651       10.9495701258       28.3324495676
  C        -4.0196918081        9.5056138619       27.0530871567
  C        -1.6028220722       15.3770752055       31.8245937752
  C        -1.5712790898       13.1858320633       32.9053153336
  H         6.0111826897       12.9484857467       19.6571283960
  H         5.9125891407       14.5115085727       19.6831479490
  C         7.7429448369       13.6200199516       18.5978371978
  H         3.8570608380        6.3650566814       16.1889441636
  C         3.7872752846        7.8583805731       14.8289335614
  H         3.4170325537        8.5819694561       29.2610334533
  H         2.4404385101        8.5795257896       30.6325859378
  C         3.9068411713       10.0099237600       30.6925533511
  H        -3.8497116149        8.9232097324       26.1156162374
  H        -4.0676022585        8.6638646410       27.8058558704
  C        -5.3405694016       10.1152589621       26.8444365621
  N        -1.4211760296       16.3839465575       30.9342599556
  C        -2.0383157262       15.9391750105       33.0791155080
  C        -1.9465798784       13.8199753029       34.0823004771
  H        -1.1842756383       12.1711356159       32.8493321469
  H         7.3042275416       13.1422701402       17.6630473827
  H         8.1949970733       14.5599465550       18.2371128189
  H         8.4752568879       12.9348362267       18.8694945666
  S         4.0147348841        9.4507795606       14.1557267019
  C         3.8646224431        6.7542763407       13.8136541571
  H         3.9846565433       10.9831869633       30.2632119605
  H         3.6360311579       10.1188403882       31.7708354403
  C         5.3514709144        9.4787782148       30.6491612891
  H        -5.2313824452       11.1846110431       26.4799947036
  H        -5.8369425242       10.2578030522       27.7879159852
  C        -6.2892506644        9.4376839218       25.8936355598
  S        -1.6780821299       17.8592507029       31.6093653743
  N        -2.2006289302       17.3606834452       33.0942210304
  C        -2.2568390902       15.2151147394       34.3000337265
  H        -2.1008795847       13.1547138925       34.8624421601
  C         4.2142719416        8.8081878788       12.5987015488
  N         4.1692823828        7.3351903839       12.5558030751
  O         3.5262886022        5.6115750068       14.0209756541
  H         5.8950691193       10.2856371867       31.1755302250
  H         5.6305022438        9.3517470430       29.7060279774
  C         5.4175884360        8.2627522164       31.5807072749
  H        -5.7502592240        8.7681709677       25.1124959322
  H        -6.9562633822        8.7070317755       26.3908581214
  C        -7.1425818969       10.3252783271       25.1594551992
  C        -2.5996208779       15.8779159710       35.4982096366
  S         4.7798217987        9.5620159530       11.1265109372
  C         4.0648355326        6.5640158595       11.3446971508
  H         5.9590057913        8.5303266513       32.4277639909
  H         4.4697617357        7.8617625403       31.9749215615
  C         6.1926781225        7.2041939179       30.7349098833
  H        -6.7166026265       10.1729186746       24.0970676784
  H        -7.0256800626       11.5140761878       25.3893800605
  C        -8.6438237594       10.0287265151       25.0790443007
  H        -2.3509150541       16.8869603247       35.5345796261
  C        -3.0959035674       15.3835927248       36.7275827842
  H         4.9527437116        6.8526805124       10.6530763195
  H         4.4645465284        5.5097337112       11.4661498718
  C         2.6731387056        6.5879865640       10.5724916865
  H         7.0793382457        7.7569798502       30.5008869900
  H         5.4005680339        6.8505724867       30.0218676518
  C         6.7736615544        6.0591718593       31.6556638998
  H        -9.1593684166       10.6380567151       24.3007835589
  H        -8.8464178434        8.9574413824       24.9002819150
  C        -9.2361391123       10.4064517305       26.4339446814
  S        -3.7370001648       13.8102795495       37.0193831046
  C        -3.4616252317       16.3248506799       37.7492900635
  H         2.6257631536        7.6592813168       10.2508950269
  H         2.6188080472        5.7395561839        9.8083370641
  H         1.9488380980        6.4804414895       11.3798505028
  H         7.4403766881        5.3451742448       31.1388504481
  H         5.9987699567        5.6881097400       32.3054349629
  H         7.4467177986        6.5859844916       32.3971688271
  H        -8.6415425068        9.9813696928       27.1716331859
  H       -10.2368047788        9.9696345611       26.5672699049
  H        -9.1754273603       11.4814045446       26.5275711185
  C        -4.4061441120       14.3792168630       38.4553305688
  N        -4.1183350326       15.6884858602       38.7670188201
  O        -3.0220699902       17.4650274299       37.7509598100
  S        -5.2669962849       13.3556856000       39.5758825008
  C        -4.3968320471       16.4033922039       39.9485144089
  H        -4.8937059404       17.4056312506       39.6654848203
  H        -5.1809616658       16.0627815834       40.6540132957
  C        -3.1449786937       16.4345151898       40.7589050428
  H        -2.4576273215       15.8850633479       40.1785529491
  H        -2.7384274474       17.4019510867       40.9408539677
  H        -3.2316669340       15.8653670243       41.6517847179
