352
 i =    69000, time =    69000.000, E =        25.2867388125
  H        12.5466686212        4.8973834376       32.3526650534
  C        11.4492443807        5.0559908120       32.1737252473
  H        10.8729807445        4.1272231345       31.9854256213
  C        11.3998548609        5.9076501352       30.8959418145
  C        10.6666483723        5.8109538566       33.2287299343
  C        12.4168127895        5.5580473965       29.8231643115
  H        10.4005374437        5.8053603438       30.5000465894
  H        11.4218021255        6.9399669658       31.0983188578
  H        10.4975177823        5.2045503499       34.1514460747
  H        11.0286147422        6.8269771703       33.3870593969
  H         9.7290497986        5.9892518867       32.7762456359
  C        11.9141556401        4.6445089440       28.7202669642
  H        13.4011580482        5.3232562978       30.2486048997
  H        12.5682172283        6.4253607169       29.3616133596
  C        11.1564548153        5.4343129642       27.7270675047
  H        12.7357891518        4.1856209863       28.2558381791
  H        11.4656035934        3.7261659586       29.0640530288
  C        10.2306213600        4.5851880276       26.6948032231
  H        11.8837134445        5.9396502140       27.0770976326
  H        10.6001472675        6.2385776897       28.1932012146
  C         9.0180288128        5.3594977964       26.1248249368
  H        10.8316847419        3.9712979481       25.9344736579
  H         9.7426486220        3.7846907560       27.2958776503
  C         7.7990581629        4.6279403403       25.4438753433
  H         8.6829232715        5.9240694913       26.9615374652
  H         9.4912437014        6.1135057967       25.4306417004
  C         7.4204682698        3.2955857663       26.0786688000
  C         8.1845287597        3.9370544468       24.2003433648
  C         6.6551026726        5.4961588580       24.9992741250
  C         7.6752188186        2.1486980140       25.2243801610
  C         6.9874882567        2.8606280019       27.3802293940
  C         8.1992023290        2.6112619617       24.0311749155
  C         8.5552117643        4.6702921124       23.0639700499
  H         6.1579195354        4.9263794516       24.1660113391
  H         6.9772591659        6.3549050181       24.5178108724
  C         5.7127068993        5.9378536110       26.1333015566
  S         7.3618417231        0.6328822884       26.0886903383
  C         6.8526219098        1.5022070685       27.5165067728
  H         6.9271567147        3.5480319873       28.2079291333
  C         8.5645612554        2.0275619796       22.8640556258
  H         8.6462903694        5.7399591256       23.1525390701
  C         8.9279108023        4.0911390867       21.9088900707
  H         5.4599639446        5.2918922264       27.0044926554
  H         6.2158992079        6.8304895638       26.5278762142
  C         4.2901446838        6.3165353317       25.5681029289
  C         6.2647506633        0.9485566905       28.7605538547
  C         8.9026627976        2.7114531969       21.7484932654
  H         8.5525344349        0.9122238904       22.8074511809
  C         9.3504298102        4.5474116756       20.7040230807
  H         3.9763760338        5.6922888799       24.8007038911
  H         4.2843500410        7.3287167864       25.1650790452
  C         3.1913300840        6.2555124003       26.5944900632
  C         6.4568920667       -0.3376030304       29.2392002120
  C         5.5893120401        1.8644324408       29.7234810256
  C         9.3423824742        2.0020748350       20.5738896250
  C         9.6309826504        3.4092834800       19.9440954813
  S         9.7439775241        6.0530000143       19.9828767032
  H         2.3995450811        6.7693267885       26.1391451816
  H         3.5177757660        6.7795431943       27.4895184799
  C         2.8054290778        4.8337291018       26.9331538285
  N         7.1115934571       -1.3636123450       28.5544636423
  C         6.1362889787       -0.7395330449       30.5415449129
  C         5.3282929184        1.5158443375       31.0486640604
  H         5.2869147824        2.8729144431       29.4152416524
  C         8.2774655428        1.2439391945       19.7759900630
  C        10.6254132458        1.1563865782       20.7064974756
  C        10.1874901437        3.8346782501       18.6822616861
  C        10.1877902936        5.1912525876       18.5339094874
  H         2.1817656330        4.3421741523       26.1593443249
  H         3.6682502945        4.1920212988       27.0785262009
  C         1.9744699364        4.8085789712       28.3067625492
  S         7.0922830268       -2.7457653229       29.3931391083
  N         6.3945873691       -2.1325582905       30.7229857166
  C         5.4766175169        0.1387109884       31.4525858547
  H         4.9195962459        2.2045152807       31.8188918115
  H         7.8598763096        0.4680568367       20.4224230089
  H         8.6739845504        0.7357194659       18.8868224437
  C         7.1098563258        2.1778365383       19.3545438938
  H        10.7545217549        0.6272723674       19.7976079580
  H        10.4049646931        0.3893757011       21.4401021761
  C        11.9122131474        1.8799716324       21.1718705071
  H        10.5649814295        3.0282899027       17.9999233431
  C        10.4208180614        5.9127936879       17.2229254281
  H         1.3113093718        3.9649203263       28.4674642888
  H         1.4827479112        5.7845453394       28.2990844678
  C         2.8839827167        4.8603406005       29.4866523667
  C         5.1119323451       -0.4371775893       32.6944569568
  H         7.3870122008        2.4728263083       18.3246027167
  H         7.1050921278        3.0983690782       19.9439712203
  C         5.6771931522        1.6317712473       19.2872547925
  H        11.7778439383        2.7419965783       21.8050713024
  H        12.3471806766        2.3144223581       20.2945483214
  C        13.0257628647        1.0348776564       21.9006144800
  C        10.4958669181        7.3413254703       17.1419927618
  C        10.6689675162        5.1261895685       15.9661551489
  H         3.3261715215        3.8337178070       29.4788982271
  H         3.6567954086        5.5881537982       29.5260368542
  C         2.0296111235        4.9944629782       30.7504882125
  H         5.1208856069       -1.5046893448       32.7266890966
  C         4.8978720676       -0.0131073909       33.9990559054
  H         5.1264949350        2.5271406440       19.4284250014
  H         5.4080704003        0.9911677629       20.1315248671
  C         5.3114650994        0.9620382747       17.9999002512
  H        12.5702646112        0.5121559382       22.7857887334
  H        13.3695492323        0.2374033610       21.2518554974
  C        14.1001541537        2.0085586916       22.3136245208
  N        10.2265615778        8.2667586968       18.1811607361
  C        10.8499015684        7.9856800081       15.9707233473
  C        10.8260672312        5.8481228737       14.7647646294
  H        10.6627164649        4.0488360639       15.8838319455
  H         1.7847024348        6.1002937985       30.9443984155
  H         1.0759420279        4.5099830285       30.6180325566
  H         2.5158418230        4.4653795645       31.5446838940
  S         4.7923187998        1.6356536260       34.4935256841
  C         4.7834099657       -1.0488105164       35.0597647331
  H         5.6990800296        1.5912682968       17.1562251362
  H         5.8597591690        0.0296187892       17.9466484237
  C         3.8259918995        0.5095485908       17.9609303080
  H        13.8016709838        2.7543275493       23.0674725225
  H        14.3155636508        2.7079234391       21.4929969399
  C        15.3565256152        1.3082155514       22.7688183900
  S        10.4000929649        9.7761231491       17.6588203501
  N        10.9888655415        9.3777702657       16.1436611898
  C        11.0458496197        7.2932691259       14.7517414633
  H        10.9033695535        5.3243953478       13.7986000861
  C         4.4295502975        0.9097655610       36.1048408887
  N         4.5523920615       -0.4270095439       36.2426438504
  O         4.7953573592       -2.2705574098       34.8874653850
  H         3.5549550380        0.4422145648       16.9261850350
  H         3.1497482454        1.2672608965       18.4013257968
  C         3.5759076107       -0.8006615672       18.7593618582
  H        15.0942357344        0.5676947492       23.5163053438
  H        15.9253352544        0.8711220290       21.9157358174
  C        16.2737261081        2.3217174303       23.4026850567
  C        11.3600566807        8.0816432366       13.6375117748
  S         4.0741409355        1.8021734504       37.6050765828
  C         4.5550875051       -1.1125461311       37.4996480214
  H         4.2783084685       -0.8304868601       19.5515853508
  H         2.5843617547       -0.7255474911       19.1828196422
  C         3.9176462640       -2.0899233912       17.9492740840
  H        15.6626418561        2.8016925292       24.1920426799
  H        16.4227400923        3.1252588857       22.7139523342
  C        17.6037879271        1.8349692714       24.0044323802
  H        11.0027009021        9.1408158230       13.8222340821
  C        11.6925542122        7.8024400621       12.2906533705
  H         4.3894791865       -0.5385559848       38.3600507567
  H         3.7998010852       -1.8994536879       37.5717140188
  C         5.9330274705       -1.8858431295       37.7453099767
  H         4.1439435890       -2.8955169244       18.6855967418
  H         4.6740902510       -1.9418761946       17.1942722632
  C         2.6177948272       -2.7180280632       17.2897703447
  H        17.8364252961        2.2811645097       25.0165714763
  H        17.5218596243        0.7815779492       24.1831845663
  C        18.7354124035        2.0592781421       22.9461261334
  S        11.9526037662        6.2839868736       11.5310920572
  C        11.7921832991        8.9903935193       11.4101867640
  H         6.1877850566       -2.6384892923       37.0073271215
  H         6.8304536351       -1.2250972406       37.6853036608
  H         5.8655709687       -2.4534141823       38.6462036656
  H         2.6881448604       -2.3838633434       16.2587227324
  H         1.8435531050       -2.1523132527       17.7464432012
  H         2.6270633309       -3.7934279121       17.2206099761
  H        18.7686766894        3.1324920104       22.6799042016
  H        18.4601144959        1.6916184991       21.9305869501
  H        19.7466518325        1.7182927506       23.2479225495
  C        12.2170954238        7.1910108009       10.0247070562
  N        12.1255742864        8.5626164158       10.1544113973
  O        11.6889582759       10.1601058600       11.7193551450
  S        12.6972601826        6.6314848975        8.3948196512
  C        12.2925956691        9.4181636846        8.9784750138
  H        12.6368045753       10.4305846870        9.3330521354
  H        13.0652044516        9.1042708013        8.2801675300
  C        10.8787825569        9.6426808954        8.2891025559
  H        10.0901924319        9.7034977661        9.0577946699
  H        10.8918650447       10.6276586855        7.6539808026
  H        10.6974219475        8.6526120962        7.7202927878
  H        -2.7455828728       14.9928750712       16.2343230948
  C        -2.6368927629       13.9429305646       16.1682919114
  H        -3.6493172388       13.5181828107       16.4594520524
  C        -1.5130654399       13.5851869806       17.2540518873
  C        -2.3044564394       13.6275404793       14.7333151814
  C        -2.1639423857       13.2837741353       18.5924883833
  H        -1.0608546904       12.7155944895       16.8108764458
  H        -0.6960365341       14.3756204848       17.2225141432
  H        -1.3679453339       14.1435564185       14.4958822129
  H        -2.0544854859       12.5699245256       14.6339643978
  H        -3.0929160232       13.8475628746       14.0786464897
  C        -1.1723777779       12.9824903440       19.7368695929
  H        -2.9210579260       12.4462727069       18.5562490128
  H        -2.7628752532       14.1697057846       18.8120123909
  C        -1.6189095528       13.2300752300       21.1473497269
  H        -0.7562985007       11.9549938304       19.7562550205
  H        -0.3587915966       13.6335807482       19.4676340372
  C        -0.8121077576       12.5505586768       22.2547503224
  H        -2.5707146669       12.7107355106       21.3424491698
  H        -1.7280287747       14.2667535688       21.2901474533
  C         0.4612697684       13.3764081492       22.5091360560
  H        -1.4454281641       12.4764247962       23.1608545714
  H        -0.4785637305       11.5300983663       21.9898975857
  C         1.5287280536       12.6161197375       23.2470807626
  H         0.7671729569       13.8511433386       21.5487801655
  H         0.1290711192       14.1175884543       23.1889014709
  C         1.9494043851       11.2730007139       22.6705586415
  C         1.1062642405       11.9419436917       24.5136917008
  C         2.6152678667       13.6900426950       23.4547270527
  C         1.7446977436       10.2004174445       23.4868934731
  C         2.4687576970       10.8509263374       21.4161301278
  C         1.1936906713       10.5896402331       24.7108367771
  C         0.6482705245       12.7360590520       25.5771357634
  H         2.9070325311       14.0267848617       22.4664443429
  H         2.0614246463       14.5142730275       23.9068050952
  C         3.8060685842       13.1714068939       24.2388031232
  S         2.3897584100        8.6945455468       22.7929744201
  C         2.7070536097        9.5000635239       21.3255477508
  H         2.3122948147       11.5020482144       20.5919920484
  C         0.8276550355       10.0607527369       25.8844948830
  H         0.7131724097       13.8191408244       25.5402684241
  C         0.2870781840       12.1607073269       26.7503978485
  H         4.1485476768       12.2431058587       23.7771710272
  H         3.3301960155       12.8653560878       25.1756023234
  C         4.9875198920       14.1778775382       24.2720662301
  C         3.1067867516        8.8434384943       20.0573226342
  C         0.3661729486       10.8045659121       26.9538726224
  H         0.9162209671        9.0123836948       25.9926863993
  C        -0.1728876306       12.5986008549       27.9868768924
  H         5.5966524630       14.0376980202       25.1535618420
  H         4.5794951358       15.2677804689       24.3870447967
  C         5.8354051720       14.4500423881       22.9674301051
  C         2.9806483668        7.5210650043       19.7880003888
  C         3.5732430646        9.7146954976       18.9943666825
  C        -0.1069676750       10.2042645245       28.2221508834
  C        -0.4378023026       11.5740075117       28.8256458862
  S        -0.5561766644       14.1379638658       28.6696553585
  H         6.3949392675       15.3678957595       22.9977712694
  H         5.2429160390       14.5396757179       22.0683810726
  C         6.8303109921       13.2604529488       22.7390562560
  N         2.5900965109        6.5879272640       20.7021659425
  C         3.2366239826        6.9427493975       18.5884076373
  C         3.8525863451        9.1262066382       17.8099295516
  H         3.6007929262       10.7994223450       18.9754411149
  C         0.9157368835        9.3355610927       28.8645077590
  C        -1.3860151192        9.3912278448       27.9734359598
  C        -0.9855543417       12.0303687466       30.0542894284
  C        -1.1576369338       13.3910898778       30.1265156595
  H         7.2351871614       12.9383859611       23.6481087785
  H         6.1541066010       12.4088244777       22.5662503675
  C         7.8581194901       13.3179977178       21.5703623089
  S         2.5338747674        5.1386624150       19.9795838357
  N         2.9794408625        5.5583522539       18.5101477968
  C         3.6673934246        7.6696129394       17.4870505826
  H         4.1823464696        9.7754186686       17.0421515158
  H         1.1677755578        8.4268519596       28.2595635309
  H         0.6347744077        8.9151486726       29.8476793618
  C         2.1423930352       10.1641447668       29.1588023246
  H        -1.0930193577        8.5352092998       27.4311809046
  H        -1.6523731880        8.9621079756       28.9243024902
  C        -2.6174164763       10.1006201378       27.3194793067
  H        -1.2822046946       11.2527735245       30.7888861995
  C        -1.4413971884       14.1033246597       31.3998389536
  H         8.6850870374       12.7252286820       21.6714524801
  H         8.2688785718       14.3609950973       21.4882000347
  C         7.1823451447       12.7999035961       20.2880105236
  C         3.8177244980        7.0165708844       16.2452333881
  H         2.5379308713       10.5579300614       28.2611183703
  H         1.9970683835       10.9543674723       29.8793838128
  C         3.2477153323        9.2042891696       29.6402111508
  H        -2.4178559553       10.5391041876       26.3678887374
  H        -2.8039236087       10.9281939098       27.9913231881
  C        -3.8282118613        9.1863145246       27.0251119744
  C        -1.4927066267       15.5159838693       31.5954165664
  C        -1.6927084182       13.3005532311       32.5896447176
  H         7.0792476743       11.7728260598       20.4539456289
  H         6.1816619587       13.2335770781       20.2987739400
  C         7.8331658206       13.1246674397       18.9781899997
  H         3.6397338826        5.9685096015       16.1685809619
  C         4.1587421918        7.5145943238       14.9860069317
  H         3.6477777897        8.6141070826       28.8078354957
  H         2.8870793999        8.3675087577       30.1515044209
  C         4.4329347146        9.9358842430       30.2378488296
  H        -3.5191073245        8.6145386671       26.1769360785
  H        -4.0309352556        8.4173712828       27.8533490500
  C        -5.0161361763        9.9947544024       26.4198423477
  N        -1.1735123293       16.4757115113       30.6258067383
  C        -1.8665124979       16.0558196393       32.8235461020
  C        -2.1482705790       13.7783432784       33.7960058675
  H        -1.6349213206       12.1910207877       32.5007615799
  H         8.5773180019       12.3024273331       18.6618685805
  H         7.1564426007       13.3031620118       18.1281545507
  H         8.4165493308       14.0263598827       19.1928516268
  S         4.5265565060        9.1919806927       14.5850932051
  C         4.2920111790        6.5268288606       13.8481045066
  H         4.5502157073       10.9301350270       29.8387845070
  H         4.1781661003       10.1211471460       31.2634958253
  C         5.7615540647        9.1609815560       30.2687849353
  H        -4.6779685751       10.7532031076       25.7492977418
  H        -5.5864770824       10.5264021481       27.2022639640
  C        -5.9295883166        9.0652916791       25.6112992893
  S        -1.3547532347       17.9071661471       31.3199535350
  N        -1.9661740061       17.4462547760       32.7598195775
  C        -2.1652360549       15.2610830305       33.9852178810
  H        -2.4644787584       13.1922726195       34.6336188055
  C         4.6720267149        8.6473587529       12.9637364225
  N         4.5748211024        7.2943952794       12.7880295108
  O         4.0144663313        5.3486306865       13.8406850627
  H         6.6167048497        9.7936864508       30.5024222569
  H         5.9123817754        8.7431013020       29.2920250340
  C         5.8442490075        7.9302130802       31.1266672476
  H        -5.3713144763        8.8019083511       24.7466855941
  H        -6.3510885494        8.3247675478       26.2388110672
  C        -6.9800525937        9.9724408939       25.0048435380
  C        -2.4232998312       15.9555271193       35.2191474458
  S         5.0576611124        9.7236406842       11.5793476197
  C         4.5231716747        6.7682604869       11.4331439591
  H         6.0250000453        8.2796730677       32.1120832228
  H         4.9366102218        7.2977322944       31.1049326466
  C         7.0725536923        7.1132307048       30.7488734706
  H        -6.7813724669       10.2111140472       23.9510666237
  H        -6.9196240343       10.9127746847       25.5181805538
  C        -8.4091846865        9.4641380529       25.1738001902
  H        -2.1557647940       17.0072405366       35.1586618311
  C        -2.7849502412       15.5757422834       36.4876909916
  H         5.2078096780        7.1594726757       10.8158453198
  H         4.9942508392        5.7912368653       11.5091657702
  C         3.1537534917        6.6566268367       10.7417493585
  H         7.5904357257        6.9395775995       31.6703334293
  H         7.8085712082        7.6570829069       30.1372408546
  C         6.8117228468        5.8226288893       29.9581473390
  H        -8.9477436103        9.6942755963       24.2780443810
  H        -8.2978981986        8.3883331970       25.2040247987
  C        -9.3357129245       10.0678260283       26.2501207432
  S        -3.3726347604       14.0689195238       36.9504429706
  C        -2.7484422757       16.5959946677       37.5184194414
  H         2.8713629468        7.5863807992       10.3292373567
  H         3.2291798916        5.9280326788        9.9272949360
  H         2.3061608991        6.4316674884       11.4054063748
  H         7.8408897316        5.3131747120       29.8505853620
  H         6.3109971288        6.0064664782       29.0574110845
  H         6.1787370798        5.1177073246       30.4644166246
  H        -9.5935435667        9.3061396419       27.0195200503
  H       -10.2390546150       10.5588860973       25.8493214583
  H        -8.8794066934       10.8272171140       26.8503429557
  C        -3.6322280158       14.8211930147       38.5383100819
  N        -3.2797555568       16.1232367535       38.6738673104
  O        -2.4259885940       17.7620191954       37.3412657967
  S        -4.3906829846       13.9009241472       39.8595272471
  C        -3.3447964558       16.9430939062       39.8640386232
  H        -3.6994190687       17.9636499036       39.5100330448
  H        -4.1947219998       16.4904641609       40.3939947561
  C        -2.1234593312       16.9966978135       40.7898347161
  H        -2.2377351251       17.7866092308       41.4807216540
  H        -2.0930698277       16.0011635961       41.3004647459
  H        -1.2834020558       17.1683286542       40.1862223848
