352
 i =    78700, time =    78700.000, E =        24.8566932920
  H        10.1766852349        7.0702692368       32.1152899211
  C        11.2310963206        6.9064264507       32.0503233898
  H        11.7425435686        7.8542155131       32.0550577815
  C        11.6671823336        6.3342242923       30.6759730788
  C        11.7196508504        5.9745258978       33.1460946218
  C        10.7315215677        5.3377295270       30.0436874906
  H        11.8534619598        7.1903904571       29.9985504204
  H        12.6526861613        5.8320992132       30.7360839385
  H        12.7504458977        6.2043166525       33.3199925588
  H        11.3296828740        6.2054007906       34.1584878270
  H        11.4006567738        4.9436842819       32.9740923496
  C         9.8471090404        5.8933908213       28.9409148991
  H        10.0046269975        4.9071365041       30.7121821856
  H        11.2570349156        4.4519708834       29.7274355666
  C        10.2937162580        5.7841075566       27.5099480429
  H         9.0310638639        5.2356324274       28.9855312742
  H         9.5626716852        6.8698355836       29.2239135756
  C         9.3344236951        4.9018543194       26.5970500104
  H        11.3032131008        5.3418991968       27.5913798729
  H        10.4185079409        6.8168170897       27.1134008232
  C         8.1059039651        5.7315954557       26.1709158366
  H         9.9125784164        4.8080896207       25.6734355041
  H         9.0225352472        3.8832186903       26.9759450954
  C         7.0212868496        4.9002576596       25.4355862287
  H         7.6175359416        6.1520922537       27.1431380493
  H         8.4445195318        6.5803592517       25.6246882014
  C         6.6345513031        3.5586797962       26.1455331035
  C         7.5393103524        4.0568898236       24.3174745723
  C         5.8494692818        5.7305078595       24.9707537340
  C         6.9735913091        2.4077899967       25.4074118185
  C         6.1334467299        3.1632101075       27.3868899076
  C         7.5029112085        2.6920984546       24.2062737000
  C         8.0602302379        4.7246628791       23.2073453459
  H         5.1643839965        5.0417136691       24.3673718256
  H         6.1722723882        6.4803897402       24.2889103933
  C         4.9671393037        6.5476833000       25.9276857285
  S         6.7390571892        0.8726555977       26.2391854795
  C         6.3204354040        1.8270175685       27.6309367469
  H         5.8658344346        3.9921538409       27.9480518116
  C         7.9063793292        2.0692858798       23.0362668444
  H         8.1054041038        5.7312307523       23.1019115154
  C         8.4882341271        4.1251050879       22.0782982153
  H         4.8731156541        6.0625489711       26.9374646587
  H         5.5136568005        7.4316343382       26.1043110732
  C         3.5623197577        6.7778923789       25.2507018420
  C         5.9424867517        1.1747752442       28.9224025909
  C         8.4481956549        2.7847306688       21.9226338871
  H         7.7344581163        1.0555453174       22.8902008906
  C         8.9351124644        4.5418020878       20.8233945038
  H         3.2632806684        5.7902213166       24.9140205753
  H         3.5827202589        7.5002927766       24.3812263213
  C         2.5457822080        7.3103849607       26.2815609374
  C         5.9512867690       -0.1944013212       29.2778711179
  C         5.4284369080        2.1199370092       30.0027324801
  C         8.7302093726        2.0832961107       20.6222935598
  C         9.0410808296        3.4679451068       19.9746118491
  S         9.3280034442        6.0553852087       20.0476789624
  H         1.5973127476        7.5062016528       25.8375175797
  H         2.9706466897        8.2370786009       26.5930437023
  C         2.2828980582        6.3634321048       27.3894221474
  N         6.3218333523       -1.2494171093       28.4071366644
  C         5.7357911627       -0.6667095738       30.5651466491
  C         5.2681808580        1.6368744409       31.3344161535
  H         5.3236765677        3.2078603474       29.7761529691
  C         7.4635762864        1.4821708244       19.8739495768
  C        10.0106554325        1.1877089052       20.6518257173
  C         9.4294567338        3.8390834277       18.7097803406
  C         9.5309320854        5.1671236469       18.5730110672
  H         2.6291530104        5.2948452645       27.1200543952
  H         2.8484670107        6.6711172025       28.2917622265
  C         0.7608226212        6.0830839439       27.6664938843
  S         6.2047591887       -2.6751587088       29.1505472140
  N         5.7760569611       -2.0730514890       30.5979997362
  C         5.3310238792        0.1856512973       31.6116844337
  H         5.0128461290        2.4174086416       32.1132268939
  H         7.1809202404        0.5617654559       20.4180026215
  H         7.8130844658        1.2630031531       18.8603903030
  C         6.2848599884        2.4162160417       19.7301821650
  H        10.2732684815        1.1038884739       19.5604792560
  H         9.7578374149        0.2279938014       21.1377441209
  C        11.2141686033        1.9833123860       21.3117560746
  H         9.6033581773        3.0798876985       17.9722843227
  C         9.9961875426        5.8523768439       17.3700980619
  H         0.4493880980        5.6593075407       26.6849633047
  H         0.1445418926        6.9474982454       27.8212175737
  C         0.6036777449        4.8938614206       28.6753817771
  C         5.0829847537       -0.3228239965       32.9875242354
  H         6.5128786989        3.0717552206       18.8910628022
  H         6.0781108548        3.0037468717       20.6421698635
  C         4.9633011046        1.6297810006       19.4905198063
  H        10.9505774832        2.4011511030       22.3206012963
  H        11.4877049805        2.8647811493       20.6573105211
  C        12.4365348255        1.0174257065       21.5616759385
  C        10.1179329016        7.2633752032       17.2876989032
  C        10.2290659088        5.0927576105       16.0940264897
  H        -0.4791873220        4.6671895896       28.8713750107
  H         1.1478205016        3.9891123409       28.4536954430
  C         1.1546129561        5.2935978443       30.0755652381
  H         5.1116684267       -1.4071027896       33.0372950902
  C         4.8050388747        0.2692370069       34.2000192796
  H         4.1757385315        2.3668433633       19.5584312348
  H         4.7249590999        0.9328357607       20.3016365835
  C         5.0575594871        1.0391797110       18.0097764477
  H        12.0651033088        0.2887946656       22.3237766741
  H        12.6460483967        0.4625280278       20.6762365692
  C        13.6235807158        1.8855366144       21.9520898329
  N         9.9576215622        8.2863368141       18.2802828640
  C        10.3542574819        7.8960904271       16.0473989909
  C        10.4310218420        5.8035851223       14.9187103770
  H        10.0841068614        4.0107417144       16.0678745641
  H         0.9265809794        6.3464484945       30.2446734854
  H         0.7801845667        4.7199847445       30.9226275029
  H         2.2370475585        5.2785808188       29.9690004137
  S         4.7275817947        1.9365551791       34.6410669098
  C         4.6291846255       -0.5458998792       35.4011807593
  H         5.2247370284        1.8809487246       17.3665229438
  H         5.9287301992        0.3367832759       17.9310731310
  C         3.9095670766        0.3305273381       17.4607355702
  H        13.3761856261        2.7648861120       22.4835162796
  H        14.1262361502        2.2351508350       21.1222786319
  C        14.7121724735        1.0981360844       22.6771743869
  S        10.1212957126        9.7432179037       17.6134648908
  N        10.4833365865        9.2969959235       16.0958311037
  C        10.4630570428        7.2549271281       14.8183444670
  H        10.4944315570        5.2543629997       14.0296678751
  C         4.4207407084        1.4620713946       36.2647471160
  N         4.3138062191        0.1578731689       36.4772947733
  O         4.8681695308       -1.7595155650       35.3305222951
  H         3.9541055178        0.1116585053       16.3847311828
  H         3.0702883585        0.9810856147       17.5472879335
  C         3.5735772342       -0.9864616535       18.2139474962
  H        14.2971152427        0.3373067306       23.3242025658
  H        15.2514772410        0.6070594003       21.8319779609
  C        15.5638445098        2.0981243304       23.4893655229
  C        10.6890110302        8.0598061465       13.6528396877
  S         3.8915605243        2.5531475318       37.5616894081
  C         4.0999703342       -0.3827872291       37.8032905975
  H         4.3083104552       -1.7093656942       18.0434591243
  H         3.4395592333       -0.7603253390       19.2648915157
  C         2.2516709927       -1.6242633904       17.7856378551
  H        14.9942899548        2.3577569471       24.3345300854
  H        15.8040429955        2.9686403817       22.8990019783
  C        16.8992107305        1.4238595779       24.0405802402
  H        10.0914217007        8.9630229940       13.7094088828
  C        11.4139293729        7.8598707600       12.5438425908
  H         3.5417139170        0.2969582699       38.4222703329
  H         3.4157048646       -1.1801435795       37.7433518342
  C         5.4041379837       -0.8371218151       38.5193237850
  H         1.4191790216       -1.0166201438       18.0834764568
  H         2.1768006823       -2.5622543999       18.3376428559
  C         2.0622526501       -1.9601991856       16.2561852349
  H        17.2369758242        2.0532768568       24.8513063597
  H        16.5578015508        0.5315762329       24.5091932128
  C        18.0668971076        1.2036333585       23.0862967022
  S        12.1520765954        6.3984456635       12.0226211190
  C        11.3951441425        8.9418455183       11.5421104807
  H         5.3158083812       -1.0495822905       39.5438225388
  H         5.6927704886       -1.7781113566       38.0441527071
  H         6.1586837401       -0.0548868499       38.5627398005
  H         2.1506891503       -1.0902071508       15.5375042854
  H         1.1152569327       -2.4275062956       16.1366415708
  H         2.8745530630       -2.7082557383       16.0533445496
  H        18.0899998091        1.9958959549       22.3948594449
  H        17.8814676823        0.3754357161       22.4048223703
  H        19.0670917734        1.0550719625       23.5087094121
  C        12.4936309369        7.2776629632       10.5389727465
  N        12.0729258300        8.5491768854       10.4391463775
  O        10.8320967155       10.0244221140       11.7461462688
  S        13.2517132827        6.4894621165        9.1090912670
  C        12.0685745067        9.3404777000        9.2545492351
  H        11.9797822581       10.3725044127        9.5577053033
  H        12.9210002172        9.2932999661        8.6101379321
  C        10.7854584051        8.8507797073        8.5727848220
  H         9.9097499698        9.3609970533        8.9739631906
  H        10.8273274748        9.0366447238        7.4703075459
  H        10.5214360929        7.8086211998        8.6337025979
  H        -3.5236240583       14.5558724418       16.2212418020
  C        -3.1523495133       13.5616419699       16.1561258192
  H        -4.0785305913       12.9927551208       16.4279085702
  C        -2.0067788736       13.4010196628       17.1550810750
  C        -2.7894966182       13.2182824916       14.7678753215
  C        -2.6005429596       13.7280589169       18.5078032527
  H        -1.6466295533       12.4033107561       17.3576242229
  H        -1.0848412907       13.9068569347       16.9866896483
  H        -2.2947334286       12.2512892701       14.5388284319
  H        -3.7043582648       13.2087316788       14.1175889221
  H        -2.1402787761       13.9634479303       14.3303721149
  C        -1.4685086481       13.8651799165       19.5419584864
  H        -3.2246881016       12.8745894225       18.7536324975
  H        -3.2377262211       14.6352320128       18.4842900839
  C        -1.8963830533       13.9468602462       20.9957107171
  H        -0.9490969048       12.9603280872       19.5720784546
  H        -0.9059209433       14.7237617787       19.2809391969
  C        -1.0410599274       13.2241008862       22.0152103351
  H        -2.9266087861       13.4581242160       21.0030443351
  H        -2.0121872841       15.0481113771       21.2746045888
  C         0.2347824570       14.0623290456       22.3527040319
  H        -1.6608635252       12.9339005050       22.7982097289
  H        -0.6751211626       12.3217823192       21.5468452853
  C         1.3448871749       13.2871451435       23.0566560739
  H         0.6274149570       14.4055026464       21.4005694024
  H        -0.0098002116       14.9811486464       22.8763228872
  C         1.7483461351       11.9265081601       22.4194139876
  C         0.9310983268       12.5614220700       24.3104931399
  C         2.6310945497       14.1700777668       23.3703542452
  C         1.5329820093       10.8246838251       23.2115378412
  C         2.2455623401       11.5688204183       21.1640875965
  C         1.0112072835       11.1812018055       24.4319229646
  C         0.3963137683       13.1308203584       25.4403291332
  H         2.6811234001       14.8207414414       22.5602313963
  H         2.4537394663       14.8158419082       24.1756822341
  C         3.9169109477       13.3488942624       23.4190645615
  S         2.0052427753        9.3553021606       22.4834953220
  C         2.4995377868       10.2495667977       21.0610039900
  H         2.4864005591       12.3730129570       20.4170915393
  C         0.6456929308       10.5235460160       25.5905047226
  H         0.2676208845       14.2144526834       25.4659986111
  C        -0.0611537416       12.5018854487       26.5519235007
  H         4.2035767092       13.0941325414       22.4759974717
  H         3.8302075504       12.4334943236       24.0335230954
  C         5.0964389234       14.0153143853       24.0199187153
  C         2.9539436772        9.6238723548       19.7466799068
  C         0.0329236121       11.1632556173       26.6297801793
  H         0.8927734345        9.4981865413       25.7109561968
  C        -0.4113409057       12.8971346323       27.8048795841
  H         5.4942960222       13.2873151046       24.7691755572
  H         4.7523128738       14.8851062141       24.6194261016
  C         6.2298300420       14.3221510684       23.1471926422
  C         2.7384847532        8.2564290501       19.4701856230
  C         3.4712221739       10.4227157517       18.6004362680
  C        -0.4600345477       10.5459939133       27.9593329089
  C        -0.6460211565       11.8564942677       28.6474954592
  S        -0.6095586114       14.4105488798       28.5888273577
  H         6.9522749969       14.9236780749       23.6706928488
  H         5.7084131818       14.8958233742       22.4338497541
  C         6.9205419676       13.0893563251       22.5959777405
  N         2.3580579301        7.2892123306       20.4214363727
  C         2.9264433972        7.6509159464       18.2256856262
  C         3.7093098922        9.8159473951       17.3981246705
  H         3.6543132884       11.4948616807       18.5913534795
  C         0.6033111505        9.6138216280       28.6456429639
  C        -1.7828986717        9.6932790726       27.8555756344
  C        -0.9573969497       12.2763946630       29.9479729262
  C        -0.9777525825       13.6559721769       30.0890259395
  H         7.7500382729       12.9006748771       23.3121727962
  H         6.2674218948       12.1976636746       22.6111191098
  C         7.4380731058       13.1811519860       21.1873797677
  S         2.1380417761        5.8634862176       19.6825903124
  N         2.4517952711        6.3450595056       18.1475576295
  C         3.3500489959        8.3965888797       17.1054223582
  H         4.0718298716       10.3623783244       16.5177670538
  H         1.0493954554        8.8820331563       27.9432114445
  H         0.2013906185        9.0700887221       29.4892882932
  C         1.8733425109       10.2995940067       29.1246023956
  H        -1.6194859139        8.9793391290       27.1003388012
  H        -2.0208651552        9.1208263859       28.7550376754
  C        -2.9778673693       10.4175647858       27.3516685440
  H        -1.0073661038       11.5588086156       30.7591603579
  C        -1.3204063323       14.4514774466       31.3232656885
  H         7.9300344677       12.2269422449       21.0329624824
  H         8.2011087161       13.9363034780       21.1268727128
  C         6.4340791446       13.3342618280       20.0681086296
  C         3.6141632690        7.6896876421       15.8829485545
  H         2.4971033081       10.7820547192       28.3777678765
  H         1.6572927523       11.0786931073       29.9206369757
  C         2.7043069966        9.3028934868       29.8761275137
  H        -2.7730379327       10.6379356758       26.2613879746
  H        -3.1236019623       11.3179984968       27.8702522108
  C        -4.3279042432        9.6837981605       27.3508497469
  C        -1.3778614960       15.8910363179       31.4273384746
  C        -1.6486268773       13.6501424014       32.5051491987
  H         5.7647717719       12.4802338025       20.1630635890
  H         5.9355003904       14.2841534365       20.2356684826
  C         6.9677163335       13.3289207305       18.6383031964
  H         3.4613075751        6.6293916581       16.0383173926
  C         3.8717690742        7.9957368385       14.5570192009
  H         2.9862103718        8.4890582654       29.1875307651
  H         2.1530952037        8.9565217080       30.7256957790
  C         4.1650710191        9.8516612866       30.1325310576
  H        -4.2230428365        8.7349218376       26.8119354762
  H        -4.7256532401        9.2110341429       28.2919461874
  C        -5.4161763418       10.5424646100       26.7291899397
  N        -1.1712331013       16.7465649226       30.3590299742
  C        -1.6885239104       16.5218576686       32.6208274172
  C        -1.8859724397       14.3170516948       33.6827019848
  H        -1.6831873516       12.5491006808       32.5613024751
  H         7.6374503713       14.2664806462       18.5489559799
  H         7.4987572512       12.4109783607       18.5042790095
  H         6.0991447152       13.2843171936       17.9314522111
  S         4.0264206168        9.5929841935       13.8655193435
  C         3.9287303831        6.8948689192       13.6310073891
  H         4.4562324222       10.1882523409       29.1354698059
  H         4.0516922767       10.7796157464       30.7099381401
  C         5.2148402658        8.9698407894       30.8783152736
  H        -4.9078899876       11.3711331546       26.2309740270
  H        -6.1258852437       10.8980499878       27.5096758619
  C        -6.2648430209        9.8706417074       25.6586700357
  S        -1.1435499035       18.2694918448       30.9030072145
  N        -1.5809560152       17.9155392888       32.4519502111
  C        -1.9716616568       15.8230764516       33.7811123463
  H        -2.0849899039       13.7043781180       34.5856052443
  C         4.2143682910        8.7717236831       12.2996806860
  N         4.1530512915        7.3973411383       12.3768611078
  O         4.0658917983        5.7254236684       13.9678468144
  H         4.6880053572        8.5409618732       31.7631205410
  H         5.9396726870        9.6845383465       31.2702898344
  C         6.1296081627        8.0311278775       30.1228765890
  H        -5.7089687737        9.2247587375       24.9733832171
  H        -6.8035265945        9.0709265868       26.2531156639
  C        -7.2466007168       10.8061764379       24.9155136265
  C        -2.1640234412       16.5136810381       34.9792715645
  S         4.6001367195        9.5726178680       10.8249783611
  C         4.0552416723        6.5525135267       11.2322988776
  H         6.2936566168        8.3543928197       29.0580579840
  H         7.1120220583        8.1183974888       30.6117564576
  C         5.7631362580        6.5990982817       30.0103233193
  H        -6.8580800055       10.9429059931       23.9585823714
  H        -7.2859324338       11.7998033971       25.4084158584
  C        -8.5836526618       10.1712356185       24.8757524578
  H        -1.9070612199       17.5034939537       34.8853417196
  C        -2.6471886888       16.0695090977       36.1594336274
  H         4.6302217152        6.9678424823       10.3927855440
  H         4.4936060526        5.5939201914       11.4562164721
  C         2.5627346737        6.3735388454       10.8122254225
  H         6.0506302137        6.2713615214       29.0102158022
  H         4.7034054681        6.5312045141       30.0828763724
  C         6.3851048953        5.8336470991       31.2083256631
  H        -9.2337565307       10.6763628086       24.1896456374
  H        -8.4501403819        9.1525946777       24.7161912897
  C        -9.3865750867       10.1924424789       26.1759975201
  S        -3.2548889291       14.4850632898       36.6589506119
  C        -2.7965099219       17.0774130830       37.2255139011
  H         2.2739569141        7.1068277085       10.0782003896
  H         2.4852585171        5.4250512364       10.3074057367
  H         1.9374636287        6.4349466457       11.6862529909
  H         5.7473956715        4.9559564972       31.1967903357
  H         6.1942543397        6.3884601502       32.1713290848
  H         7.4714909694        5.6083916782       31.1226284069
  H        -9.2517040923       11.0307528731       26.8939062640
  H        -9.1806860172        9.2329966975       26.6409390591
  H       -10.4090451339       10.0876969672       26.0304378585
  C        -3.5231045654       15.1733668354       38.2948280316
  N        -3.2394615155       16.5492350021       38.3254808798
  O        -2.5526198250       18.2238628119       37.0754354710
  S        -4.1157535863       14.4299560764       39.7825616727
  C        -3.3694688006       17.3544114634       39.5045164150
  H        -3.5854185020       18.3775483113       39.1530929018
  H        -4.2028345772       17.0942044153       40.1471035513
  C        -2.0784306703       17.4007880293       40.3519672284
  H        -1.4981755989       16.5890042685       39.9464751241
  H        -1.4742010977       18.2847039673       40.1070254657
  H        -2.0518933058       17.4009495717       41.3754286700
