352
 i =    25700, time =    25700.000, E =        25.4649183085
  H        11.6940486955        7.8248518648       32.0690415529
  C        11.7205951288        6.7719366459       32.0259239251
  H        12.7102837047        6.5514988460       31.6643495913
  C        10.6034299966        6.6207687846       30.9584874916
  C        11.2617282303        6.1604878210       33.3618457423
  C        10.9946601744        6.0288278678       29.6239405484
  H         9.8453523323        5.8762848969       31.2648316353
  H        10.0334986389        7.5390912615       30.7583752694
  H        10.2889606207        6.6689104687       33.5916979514
  H        11.0897274030        5.1476726267       33.1594163702
  H        11.8578561134        6.2891285985       34.2171447299
  C         9.8756710003        5.9406479440       28.5237734607
  H        11.3812421788        5.0143213297       29.7714119019
  H        11.9223674224        6.5907061239       29.3371360212
  C        10.4997447707        5.7145760959       27.0499321810
  H         9.0995909305        5.3296118022       28.8414100836
  H         9.4382574059        6.8722356746       28.5626519083
  C         9.4248089317        5.2941814889       26.1528324656
  H        11.2356732205        4.9576614331       26.9130785077
  H        10.9423082177        6.6195378869       26.7291808183
  C         8.1857366059        6.0763422810       26.1229731150
  H         9.8536100099        5.3540300971       25.1682268110
  H         9.3600811909        4.2207386130       26.3404801602
  C         7.0814471220        5.3939208195       25.3112016910
  H         7.8475540346        6.2881544608       27.1213170872
  H         8.3998160472        7.0043025213       25.5356310690
  C         6.8338966530        4.0742470990       26.0686445824
  C         7.5317145471        4.6949814827       24.1082901902
  C         5.7658089722        6.2798372723       25.2976837660
  C         7.0403177275        2.9701907408       25.2592692339
  C         6.3367105809        3.6982383818       27.3210700674
  C         7.5423908235        3.3586073149       24.0163413268
  C         7.9873769985        5.3042920615       22.9656896706
  H         5.7389138121        7.2679537234       24.7567428403
  H         5.7354937401        6.4838538512       26.3628891200
  C         4.4381840803        5.6544256555       24.9579538392
  S         6.7716684198        1.4546597882       26.0697163799
  C         6.2116914683        2.3395143348       27.4580407296
  H         6.1551761910        4.4442247424       27.9749203326
  C         7.9921959650        2.7302716147       22.8593036856
  H         7.8234942593        6.3616754645       22.9001981330
  C         8.3960495826        4.7058111978       21.7960054516
  H         4.4105685219        5.4875338746       23.8873830710
  H         4.2955960755        4.7532635391       25.4885162392
  C         3.2445114848        6.5072796631       25.3298646985
  C         5.9280834409        1.6400193316       28.7765206981
  C         8.3208181748        3.3782981328       21.6743266282
  H         8.0747404429        1.6116066175       22.8465524519
  C         8.7401436378        5.0824841625       20.4984090034
  H         2.3415767866        6.2791369023       24.7251796809
  H         3.4011465508        7.5737815849       25.0641681985
  C         2.8311784644        6.4523752611       26.8276523965
  C         6.1096365849        0.2658961147       29.1055229062
  C         5.4554547099        2.4970809432       29.9270315626
  C         8.6494140168        2.6737506975       20.3797592128
  C         8.9363830321        4.0149095317       19.6961502305
  S         9.1057671100        6.6354426550       19.7784439014
  H         2.1752877678        7.2587388659       27.0539841590
  H         3.6328385549        6.7425499659       27.5311949030
  C         2.2965838393        5.0045228572       27.2917714101
  N         6.5072879571       -0.6514310891       28.1966983102
  C         5.8572492319       -0.3202015238       30.3227320207
  C         5.1600168146        1.9512536633       31.1557938546
  H         5.2485980100        3.5559778980       29.6641876294
  C         7.4618589572        1.9334424063       19.8028132334
  C        10.0154905649        1.9068992679       20.3072244026
  C         9.2672547598        4.4047084591       18.3836267477
  C         9.3441221130        5.7664177516       18.2846128568
  H         1.6622570261        4.5863069079       26.5308102029
  H         3.1588506216        4.3731506124       27.3312218543
  C         1.4941130867        5.0501697148       28.6217144429
  S         6.6030050216       -2.1122097848       28.9059588464
  N         6.1322957142       -1.7269713301       30.3842982910
  C         5.3622585658        0.4956459366       31.4117035241
  H         4.7045785233        2.5148766651       31.9207135143
  H         6.9916421833        1.1645270325       20.3671358161
  H         7.9084365292        1.4474121109       18.9528754121
  C         6.2699302886        2.7705515912       19.3764067916
  H        10.0749597410        1.6186654241       19.2750000188
  H         9.9770342790        0.9895768341       20.8500020486
  C        11.2779656446        2.7037239536       20.7237949295
  H         9.3440718112        3.6604433825       17.6567852470
  C         9.6486950503        6.4933365785       17.0061973909
  H         0.9028206043        4.1172113362       28.8184849906
  H         0.6457542797        5.7584442076       28.6205626102
  C         2.2940055709        5.4996153004       29.8181959560
  C         5.2189634936       -0.1685816844       32.7050318266
  H         6.5669839920        3.3498722664       18.5586123906
  H         5.9601932886        3.4336720439       20.2027119919
  C         5.0346597499        1.9827442816       18.9590983526
  H        11.0718848565        3.3395047867       21.6063666923
  H        11.4878793778        3.4200397746       19.8989480801
  C        12.4882418622        1.8750435641       21.1209709934
  C         9.7523433108        7.8515603271       16.8050293185
  C         9.7772462852        5.7648328938       15.7317907884
  H         2.6910238421        4.5545538040       30.1717382569
  H         3.1978323062        6.0117825688       29.6105657095
  C         1.4815302670        6.1058996049       31.0421189321
  H         5.4039397855       -1.1905756721       32.7348240977
  C         4.9083077870        0.3031660153       33.9525160819
  H         4.6477146834        1.5517541368       19.8345509284
  H         5.3600695126        1.1873548783       18.3086900530
  C         3.9753572901        2.8138785779       18.2656746308
  H        12.4335183613        1.6193886983       22.1722829790
  H        12.3588668187        0.9066403603       20.6049839133
  C        13.7908755991        2.6333090976       20.9379173148
  N         9.5676118466        8.8157141463       17.8168812991
  C        10.0795969827        8.4598611520       15.6179927143
  C        10.0844658417        6.3585406108       14.5005553082
  H         9.7147291942        4.6945474263       15.8496505736
  H         0.6781091797        6.7628400021       30.7260913392
  H         1.2117649562        5.0749051420       31.4862843751
  H         2.1325256281        6.5903471244       31.7303535856
  S         4.5719818746        1.9398088986       34.3672665298
  C         4.9169644929       -0.6203955399       35.0557903692
  H         4.0050947936        3.8309929667       18.6988049492
  H         4.2479136274        2.9638944658       17.2644342097
  C         2.5796309962        2.2170750857       18.3545771203
  H        13.6178885917        3.2935378327       20.0771608545
  H        14.5139216220        1.8974793645       20.6538084751
  C        14.3023723558        3.3394895993       22.1920343855
  S         9.5730815367       10.3198477007       17.2338858227
  N        10.0692639354        9.8398163955       15.7578712153
  C        10.1693861807        7.8145807617       14.4076368938
  H        10.1545449098        5.7433575700       13.5846573966
  C         4.4700950471        1.3754146438       36.0256336815
  N         4.5202727602        0.0438441554       36.1423276638
  O         5.1557879356       -1.8090058245       34.9446296491
  H         1.8831725015        2.9800260936       17.8898670584
  H         2.2428003415        2.1513268296       19.3427615516
  C         2.5632524098        0.9836984616       17.4819038650
  H        14.9817792378        4.1533731438       21.9677435227
  H        13.4397384275        3.7652642743       22.6783499131
  C        15.0509300624        2.2854116907       23.0636349127
  C        10.5115354737        8.6215251318       13.2701807017
  S         4.0346290107        2.1441268442       37.5315705418
  C         4.5140605601       -0.6640253766       37.4090656122
  H         2.3812982738        1.3058438014       16.4413708320
  H         3.5487456562        0.5647899888       17.3696106645
  C         1.6039141980       -0.0760492255       17.9768606209
  H        14.9585748094        1.2774213981       22.6132065279
  H        14.5161930202        2.0998779183       24.0343779579
  C        16.5225202251        2.5758021081       23.5017520724
  H        10.2808908196        9.6385374922       13.2789607695
  C        11.1964119923        8.2400547605       12.1593056068
  H         3.6295418640       -0.4774314390       38.0295782667
  H         4.3586848138       -1.7328776883       37.2369010673
  C         5.7802504880       -0.4359396826       38.2158346036
  H         1.3468535051       -0.7572323528       17.1431809127
  H         0.6190237036        0.3755737606       18.2645582713
  C         2.1618542044       -0.6461660380       19.2700089922
  H        16.6167517348        3.5851510242       23.8429427966
  H        16.7286322659        2.1150859730       24.4913505020
  C        17.6402711563        2.3606294569       22.4037868465
  S        11.6520869376        6.6373807361       11.8067517279
  C        11.3904408680        9.2333481805       11.1335251689
  H         6.2041690143        0.5267923209       38.0583111320
  H         5.5632272906       -0.6461705862       39.2360051245
  H         6.5038921991       -1.2739228872       37.9417704685
  H         1.5126352927       -0.3553297436       20.0938127708
  H         3.2401051129       -0.4548605150       19.4105885105
  H         2.2004273154       -1.7784994382       19.2259157861
  H        18.5585252423        2.4543660836       22.9784421463
  H        17.5902350953        3.0360756663       21.5840131349
  H        17.5867537840        1.3708363441       21.9695452004
  C        12.1992379331        7.2892178608       10.2825198400
  N        11.9793434695        8.6161462929       10.1336325855
  O        11.1909030990       10.4546888585       11.1719055448
  S        13.0159592323        6.3842981499        9.0173616036
  C        12.3344920031        9.2626226049        8.8678062785
  H        12.3307601916       10.3209020913        9.0091483238
  H        13.3059339142        8.8638840132        8.4952488485
  C        11.3688437246        8.9334451233        7.7948971784
  H        10.5873205707        8.3079136703        8.2455710464
  H        10.8352815325        9.8652711911        7.4557939998
  H        11.8671667262        8.4913451089        6.9469452590
  H        -1.7878045546       14.6789172173       15.8494217348
  C        -2.4489686080       13.9888880978       16.3055915139
  H        -3.3348185377       14.5700260791       16.6582916306
  C        -1.8949068236       13.2915311079       17.5244020571
  C        -2.9783194563       13.1677337799       15.2351193275
  C        -2.4440766827       13.8607882647       18.7809184247
  H        -2.2337041761       12.2704741352       17.5828820373
  H        -0.7680296320       13.3928567466       17.6331468619
  H        -2.3868506540       12.3457339569       14.8574116445
  H        -3.9189958872       12.6566157541       15.6145043457
  H        -3.2274807429       13.8972467901       14.4161033832
  C        -1.6213289921       13.4111887333       20.0068157161
  H        -3.4833003752       13.5520860521       18.9661740721
  H        -2.3784715435       14.9468466190       18.7749630552
  C        -2.2170961244       13.7289206976       21.4582621818
  H        -1.4049778734       12.3855450537       19.8594104473
  H        -0.6817396832       13.9300159361       19.8643583824
  C        -1.3958389614       13.1926197344       22.5358677328
  H        -3.2554813706       13.3683911335       21.4785442768
  H        -2.2562522215       14.8245411450       21.6273903065
  C        -0.1296502013       14.0597155870       22.7014881089
  H        -2.0317830015       13.1019049004       23.3900073798
  H        -1.0705576262       12.1442712587       22.3318300840
  C         1.0331471064       13.3348118684       23.3964459842
  H         0.3316588464       14.3779624709       21.7518862979
  H        -0.4750947659       14.9693317777       23.1624831685
  C         1.4445135165       12.0821532973       22.6123166673
  C         0.6446680516       12.6084805586       24.6348156282
  C         2.2861226181       14.1921586856       23.6721270638
  C         1.1114290507       10.9403922033       23.3845583574
  C         2.0378838914       11.7935862090       21.3712699847
  C         0.6237752808       11.2789166786       24.6554979879
  C         0.2529665366       13.2624505937       25.7551165977
  H         2.5573762114       14.5781571767       22.7304977636
  H         2.0385161951       15.0022478842       24.2955008796
  C         3.5642126359       13.4588099385       24.2002272379
  S         1.5047381877        9.4682095309       22.4936727453
  C         2.1636072770       10.4457147724       21.2011762812
  H         2.3622166651       12.6473328229       20.7802697875
  C         0.2091300836       10.6122918562       25.7954283917
  H         0.2113333144       14.3374618035       25.6992322839
  C        -0.0878354059       12.6339626073       26.8987770026
  H         3.7148151078       12.6187322942       23.5963277070
  H         3.4455372829       13.1068753452       25.2564325976
  C         4.8550391682       14.2855827318       24.1352742035
  C         2.4921094732        9.7851578445       19.8518962049
  C        -0.1280270020       11.2952030174       26.9391255692
  H         0.0527715674        9.5556307268       25.8733665607
  C        -0.4822508217       12.9677711241       28.1233736664
  H         5.6057677305       13.8430477282       24.8745325569
  H         4.6382906425       15.3137500311       24.3037616731
  C         5.3871642262       14.4254060549       22.7294730446
  C         2.3826695122        8.3797666210       19.5766872654
  C         2.9294738311       10.6611386253       18.7519271470
  C        -0.5870223030       10.5351920379       28.1446045079
  C        -0.7887610819       11.8638172181       28.8612875287
  S        -0.6383646265       14.4414574428       29.0234214283
  H         6.2747411356       15.1601997597       22.7873379644
  H         4.6737156406       14.9511071076       22.0976544449
  C         5.8696758403       13.1585682555       21.9641502579
  N         2.0925372705        7.3371385752       20.4884274576
  C         2.6217885779        7.9043078315       18.2733367573
  C         3.1604255383       10.1112182355       17.4340642813
  H         2.9980827654       11.7455723169       18.8848037324
  C         0.5275444679        9.6404091884       28.7330378380
  C        -1.8729632653        9.7846756647       27.9027843274
  C        -1.1062043553       12.1878754433       30.2020187254
  C        -1.2383357925       13.5263280910       30.4527499577
  H         6.4731084986       12.4966256113       22.6815944449
  H         5.0532730439       12.6780785216       21.4429807226
  C         6.8902564652       13.5114926677       20.8766618656
  S         2.0371529776        5.9614911822       19.6566322061
  N         2.3731353138        6.4575710143       18.1589685223
  C         3.0152776231        8.6771745449       17.1517102881
  H         3.4628716801       10.7647923197       16.6430583233
  H         0.5898665898        8.6811687049       28.2373728464
  H         0.2716140852        9.3282640427       29.7853249883
  C         1.8700099538       10.3493354357       28.7312437776
  H        -1.5583951660        8.9434116962       27.2729932070
  H        -2.3017613601        9.2500489283       28.7532989974
  C        -3.0177940312       10.6582135368       27.3043969548
  H        -1.3472683036       11.3245788017       30.8626469962
  C        -1.4493634956       14.1848480244       31.7622648527
  H         7.2316230176       12.5940696628       20.3845106113
  H         7.8092236793       13.9965770746       21.3038387517
  C         6.2917395644       14.4787366251       19.8258392109
  C         3.1056574833        8.0536509014       15.8444694158
  H         2.2134892617       10.3823082795       27.6568694634
  H         1.9176281695       11.4420229783       29.1017436718
  C         2.8317422269        9.5680419426       29.4897148107
  H        -2.7346670267       11.0970863335       26.2972722334
  H        -3.2938384923       11.4766597951       27.9795746582
  C        -4.3125027986        9.8473340008       26.9836615398
  C        -1.3748518382       15.5736551283       32.0135247951
  C        -1.7638782726       13.3389921027       32.9438627374
  H         5.5646004818       15.1608142303       20.2021433876
  H         7.1863080576       15.0722353011       19.5295515941
  C         5.6141067925       13.8920971613       18.5806073509
  H         2.9869369217        7.0072836905       15.9249320321
  C         3.4236617440        8.5248870218       14.5632795025
  H         3.0445225940        8.6352627417       28.9715855834
  H         2.3776165251        9.2209087400       30.4459748416
  C         4.1432078400       10.2427842274       29.9626571664
  H        -4.1656451351        9.0268592512       26.2685161784
  H        -4.7174727364        9.4826430753       27.9371417467
  C        -5.3181678718       10.8079418514       26.4373255043
  N        -1.1495047604       16.6276640730       31.0718847150
  C        -1.8101488891       16.1224874328       33.1876509253
  C        -1.9526790747       13.9171382028       34.1817655095
  H        -1.9645097103       12.2926829735       32.8645684548
  H         6.2681509779       13.2935461121       18.0207054873
  H         4.7534209222       13.2743210575       18.7274373673
  H         5.3265597138       14.7243775643       17.9875870744
  S         3.9894466897       10.0541276001       14.0221426907
  C         3.6020020968        7.4399952527       13.5207974991
  H         4.4440784741       10.9458179990       29.2218172367
  H         4.0578613593       10.8120782579       30.8873840663
  C         5.2998981720        9.2357003021       29.8729020533
  H        -4.9152985429       11.4150296726       25.6804685938
  H        -5.4757141914       11.5400289995       27.2309995218
  C        -6.6403530059       10.1566598068       25.9694646985
  S        -1.3987260217       18.0635303057       31.7633866534
  N        -2.0272760192       17.4837910126       33.1774108752
  C        -1.9727742037       15.3453702699       34.3565987528
  H        -1.9943980005       13.3711092135       35.0508162529
  C         4.0192363875        9.2838979466       12.3937463101
  N         3.9506414518        7.9082058953       12.3163843603
  O         3.1048053878        6.3229925629       13.7019246437
  H         6.2641488451        9.7403842358       29.9398169658
  H         5.3099529921        8.6804559388       28.9654987725
  C         5.2431605503        8.1836895740       31.0247239395
  H        -6.3871069579        9.4569245109       25.1260267218
  H        -7.0659045664        9.5214972340       26.7581748980
  C        -7.6657729934       11.1670302067       25.5837054271
  C        -2.3717979550       16.0985839087       35.5450561142
  S         4.4483087287       10.1747938958       11.0209837487
  C         3.8876200031        7.0644406199       11.1234346346
  H         4.9701103028        8.6831724644       32.0053624685
  H         4.4469130172        7.5006466269       30.8718462137
  C         6.5694959021        7.4379191147       31.2839666218
  H        -7.9572843411       10.9857710100       24.5684058785
  H        -7.2871131790       12.2060015784       25.7676965327
  C        -8.9566046413       10.9976864057       26.4288369974
  H        -2.1988622516       17.1482665980       35.4984761219
  C        -2.9763598023       15.7243175745       36.6841773245
  H         4.4746249592        7.3450978753       10.2645386355
  H         4.2788498421        6.1014918894       11.3036006506
  C         2.3867935385        7.1758360887       10.5658613470
  H         6.7743097950        7.3926490303       32.3387821554
  H         7.3833838660        8.0245938574       30.9686045096
  C         6.5998409333        6.1431983611       30.4673840027
  H        -8.7877587564       10.8711060901       27.5069807622
  H        -9.6140765936       11.8598737004       26.3988873125
  C        -9.7436990228        9.7379275836       25.9991483058
  S        -3.6093218642       14.1226586440       37.0806118574
  C        -3.0378500843       16.7084848696       37.7955041802
  H         1.5775631397        6.9981082424       11.3206455226
  H         2.1969416964        8.0581609825        9.9572147645
  H         2.2425611138        6.4552795557        9.7396230014
  H         5.6009207922        5.6704710118       30.6215264234
  H         7.2723324309        5.4056604424       30.9728627850
  H         6.8758844760        6.3154203215       29.4356287782
  H       -10.8121742419        9.7171323016       26.3292372809
  H        -9.2816138156        8.8846259328       26.5173544499
  H        -9.6118870044        9.6057377779       24.9092389236
  C        -3.8602476205       14.7424195847       38.7475143539
  N        -3.6099808389       16.0727707345       38.8855472885
  O        -2.6923550637       17.8897923207       37.7274161599
  S        -4.5392022101       13.8542874244       40.0296669197
  C        -3.6595690239       16.8067820422       40.1412749432
  H        -3.9186828216       17.8302403794       40.1124523113
  H        -4.4010964479       16.3717727003       40.7218986251
  C        -2.3945083708       16.7917883849       40.8799680392
  H        -2.3897621159       17.5569319202       41.6452936897
  H        -2.3314486158       15.8089607507       41.3554890413
  H        -1.4850426748       16.8926619029       40.2433154722
