352
 i =    32000, time =    32000.000, E =        25.1771691359
  H        12.3746099835        5.3284996233       31.9155616542
  C        11.3008804486        5.5526009013       32.0767821192
  H        10.7532691355        4.8460989711       31.5847252766
  C        11.0700606162        6.8004568919       31.3106938488
  C        10.9558330653        5.6051228230       33.5104888506
  C        11.4542283947        6.5265940247       29.8423431638
  H        10.1294502697        7.2501892969       31.4953704041
  H        11.7494161568        7.4879263918       31.8562530030
  H         9.9401315873        5.8533278625       33.6756763191
  H        11.1114561540        4.6181206064       33.9227874139
  H        11.5868602321        6.3489921550       34.0561011699
  C        10.2809318400        6.1265380094       28.9892369720
  H        12.2478326853        5.7454142542       29.7801173978
  H        11.9319843756        7.4007345003       29.4783676686
  C        10.7654945151        5.8319648172       27.5098480285
  H         9.9030596131        5.2419353742       29.4272633937
  H         9.5352138940        6.8841219278       28.9446409916
  C         9.8420957042        4.9737265585       26.5470790649
  H        11.7332054981        5.3621431647       27.6210490954
  H        10.8520263118        6.7598130537       26.9607673728
  C         8.6306725798        5.9492904252       26.1613333106
  H        10.4086243112        4.7732713406       25.6348831658
  H         9.4600817673        4.0907971619       27.0398180167
  C         7.4732271516        5.2784709866       25.4284298171
  H         8.1589800439        6.3545570618       27.0881813261
  H         8.9364504398        6.8069391786       25.6104563839
  C         7.1749443342        3.9237885630       26.0784237306
  C         7.8163073042        4.5691161040       24.1383745735
  C         6.1465962914        6.0768880153       25.4340373350
  C         7.3857606168        2.8229719592       25.2321240561
  C         6.5000297444        3.5743119356       27.2925912093
  C         7.8823154634        3.2421069432       24.0234638319
  C         8.3203227019        5.2951809042       23.1136292439
  H         6.2840225671        6.9130547531       24.6976319447
  H         5.9513317727        6.3711413122       26.4778831525
  C         4.9879522462        5.2462380766       24.9197798140
  S         6.8931007170        1.3961564407       26.0340532191
  C         6.3804858751        2.2608278374       27.4038067537
  H         6.2762736018        4.3523948197       27.9984896413
  C         8.3113894210        2.7325217868       22.8252355989
  H         8.3032563186        6.4163733324       23.2300967162
  C         8.7376854274        4.7642667088       21.9486350746
  H         5.2137653190        5.0400933007       23.8336353910
  H         4.7901467526        4.3318475588       25.4445694487
  C         3.6189983364        5.9289127919       24.9772888761
  C         5.9640186352        1.5605253480       28.6686173978
  C         8.7127993056        3.3931715828       21.7055077846
  H         8.3082684792        1.6275516247       22.8291344670
  C         9.2446391858        5.2205678823       20.7052160135
  H         2.9369587123        5.3171195930       24.4484145985
  H         3.6901268278        6.8280077361       24.3452268657
  C         3.1306558355        6.3603098545       26.4292608535
  C         6.1596975779        0.2244911315       29.0004657617
  C         5.4350799601        2.4276915288       29.7779408538
  C         9.2137156634        2.7592648951       20.5053633707
  C         9.4749025091        4.1517084462       19.8492646729
  S         9.5718244834        6.7255034902       19.9496080976
  H         2.4253053933        7.1939793829       26.2778781328
  H         4.0136318414        6.7603729122       26.8956598947
  C         2.5702591920        5.1002929661       27.1385641643
  N         6.7049323238       -0.7139260234       28.0761320569
  C         5.8486451670       -0.3212125411       30.2492332971
  C         5.1571831286        1.8506023728       31.0267798537
  H         5.2190219902        3.5090168710       29.6349312447
  C         8.2252184589        1.9106566991       19.6494161814
  C        10.4964177367        1.9664660697       20.8241320824
  C         9.7955626433        4.5856350175       18.5653239276
  C         9.9141909502        5.9581184985       18.4417547884
  H         2.0271263671        4.5105462790       26.4125304487
  H         3.4061632178        4.4444089056       27.4561477884
  C         1.5442105998        5.5411784028       28.1827414028
  S         6.5750984572       -2.1816032445       28.7368230617
  N         6.2216989634       -1.6722969181       30.2543541457
  C         5.4070274982        0.4012439150       31.3194117779
  H         4.7575764395        2.5859031378       31.7200404595
  H         7.8902170384        1.0799448371       20.3044102700
  H         8.8656417015        1.6351790945       18.8291263060
  C         6.9288252743        2.7202899368       19.2474684554
  H        10.8060530793        1.2868667769       19.9408976743
  H        10.3079697315        1.2451193488       21.6787036145
  C        11.7399026132        2.8445089039       21.0479644800
  H         9.9580846018        3.7845725160       17.8679610892
  C        10.3329030266        6.6855693417       17.1930105079
  H         1.0927613116        4.6531569078       28.7299407506
  H         0.7102424800        6.0832535217       27.6910774451
  C         2.1445039581        6.1965204311       29.3856300715
  C         5.1022459233       -0.2104081367       32.5498701237
  H         7.1847219717        3.3072891029       18.3831137265
  H         6.5571133214        3.3263275514       20.0130849966
  C         5.8841296161        1.8013609732       18.6517444368
  H        11.6479393394        3.5477158462       21.8493073646
  H        12.0233822721        3.5016580106       20.2510623510
  C        12.9764145417        2.0292092122       21.3478131898
  C        10.3096205994        8.0686163710       16.9359402631
  C        10.6199430788        5.8800051865       15.9599287129
  H         3.0598237138        6.7283547918       29.1395876433
  H         1.5580295728        6.8563710261       30.0198062208
  C         2.5829772939        5.2115557792       30.3993515704
  H         5.2700430247       -1.2713962125       32.5577096451
  C         4.6815304624        0.3582013915       33.7251193482
  H         5.5704555392        1.0993018152       19.4503275059
  H         6.3689983774        1.2326417585       17.8678058649
  C         4.6956559180        2.6630442484       18.1222389859
  H        12.8172728704        1.4824277290       22.2853925811
  H        12.9745785798        1.1754346214       20.6266717039
  C        14.3151622256        2.8313536240       21.3762583792
  N         9.8681420325        8.9971959546       17.9781009942
  C        10.4128785048        8.6656030040       15.6743818431
  C        10.9224748669        6.5097783352       14.7179472464
  H        10.7363863243        4.7991555754       16.0528926019
  H         1.7703197280        4.6782770264       30.9566451806
  H         3.2262807512        4.4044108400       29.9965140062
  H         3.2079560402        5.7403529784       31.0880022468
  S         4.4664894345        2.0256509854       34.1206895854
  C         4.5259219355       -0.6022479521       34.8592029218
  H         4.4459149333        3.5522009837       18.6682951424
  H         4.7227526253        3.0829728432       17.1680936744
  C         3.4203396928        1.8231813209       18.1788574656
  H        14.1174794289        3.6913186472       20.7878784467
  H        15.1449610395        2.3911013166       20.8412246716
  C        14.8349597591        3.1966374009       22.7282667837
  S         9.8000631842       10.4803614167       17.3254762038
  N        10.1217648686       10.0498626571       15.7407814817
  C        10.8054484492        7.9997593083       14.5177093114
  H        11.0468821353        5.8167203229       13.9016014353
  C         4.0967797647        1.4254306886       35.7742484839
  N         4.0984181741        0.0911085666       35.9083876569
  O         4.5770393593       -1.8242702766       34.8022512750
  H         2.5270701820        2.2885625282       18.3848785918
  H         3.5146756908        1.3217109828       19.2138090660
  C         3.3284736282        0.8429689192       16.9358460861
  H        15.4962299195        4.1411009444       22.6143528571
  H        13.9445177293        3.4003854773       23.3292197222
  C        15.7074801266        2.1075073371       23.2969949547
  C        11.0643860060        8.7599444690       13.3922833279
  S         3.7490258299        2.4972221940       37.1211601458
  C         3.8648698190       -0.4614749636       37.2441650861
  H         2.5848659689        1.1055658351       16.1913769218
  H         4.2180974874        0.9124243957       16.3801539262
  C         3.1111312815       -0.6292299506       17.4279276848
  H        15.5918449456        1.3238979993       22.5987495901
  H        15.2519953444        1.6705079169       24.1912589860
  C        17.2229483736        2.4789983065       23.5083393678
  H        10.8865291693        9.8284188600       13.3309113823
  C        11.6144558598        8.3636992562       12.1707803831
  H         3.0009195141        0.0492875988       37.7974426842
  H         3.5691492224       -1.5364284537       37.1905900832
  C         5.2330020958       -0.3947115083       38.0178100766
  H         3.9517283354       -1.1091978397       17.8886910345
  H         2.9249556682       -1.2894216273       16.6183121721
  C         1.9324791563       -0.7670372247       18.3823454823
  H        17.2993075444        3.5149712649       23.8329682493
  H        17.6292451569        1.8573133748       24.2675163690
  C        18.0329491740        2.3009442780       22.2475254971
  S        12.1768957807        6.7591090139       11.7455481381
  C        11.5200531207        9.2645112970       11.0518855432
  H         5.8564255950        0.4140146597       37.6455658821
  H         5.0134312902        0.0200574879       38.9922389593
  H         5.8210696822       -1.2856455297       38.1320781613
  H         1.4042635360       -1.7728417432       18.2997085386
  H         1.2834653727        0.0995682781       18.1979095524
  H         2.4173583242       -0.5718116213       19.3498005115
  H        18.4486282029        1.2736720219       22.0370271057
  H        18.9010702744        2.9691085064       22.3459505036
  H        17.4916197542        2.6410751286       21.4053967946
  C        12.2578380190        7.3531393463       10.1270385893
  N        12.0320758752        8.6625999304        9.9735960272
  O        11.0651232078       10.4123220113       11.1351899291
  S        12.8824480656        6.3492661061        8.8253397223
  C        11.8075097553        9.3958510333        8.7165620548
  H        12.0301356689       10.4862530274        8.8532537925
  H        12.5839966698        9.1591104450        7.9840559038
  C        10.4411860231        9.1883970629        8.1242161278
  H        10.4180236541        9.7430783894        7.2224347714
  H        10.3330047240        8.1386342090        7.8248720553
  H         9.6742948488        9.4713196052        8.7787256148
  H        -2.9824675302       15.1352839924       16.7342777260
  C        -2.9005798655       14.1025128967       16.6297056560
  H        -3.9083829089       13.6709929239       17.0130172430
  C        -1.7536374478       13.6347779613       17.5478688880
  C        -2.5627053700       13.5657200206       15.2616482985
  C        -1.8310039447       14.1741902149       19.0227972949
  H        -1.6214307263       12.5005378032       17.4151636074
  H        -0.7821428050       13.9062202845       17.1412124032
  H        -1.8049841089       14.2313748601       14.8182921744
  H        -2.2128757608       12.5220511767       15.2509153470
  H        -3.5286820751       13.5190054894       14.7546816151
  C        -1.9132978552       13.0516955397       20.0182196305
  H        -2.5569941480       14.9398455232       19.2110035962
  H        -0.8575144114       14.7709405030       19.2076972972
  C        -2.0973197800       13.5575071066       21.4647908773
  H        -2.6139070607       12.3310446212       19.6325263259
  H        -0.8896347698       12.6219704629       19.9423449669
  C        -1.2189166103       12.8258418401       22.4687085348
  H        -3.1572894201       13.2351600233       21.6891708686
  H        -2.0232471190       14.6183826576       21.4527273491
  C         0.0885275977       13.6874471006       22.9006379138
  H        -1.8833862165       12.7001009956       23.3252243463
  H        -1.0225483614       11.8439937224       22.0651937914
  C         1.1938023931       12.8958981080       23.6712999690
  H         0.6252936251       14.0342879951       22.0450310158
  H        -0.2325053920       14.5639014304       23.4683175192
  C         1.5532770996       11.5971771261       22.9493576322
  C         0.8258776243       12.1176154366       24.9032481993
  C         2.4416219586       13.6943865358       24.0145371838
  C         1.3820830188       10.4489144338       23.7287608479
  C         1.9391658401       11.3141850583       21.6336070707
  C         0.9913536950       10.8259737522       25.0022435881
  C         0.3259067575       12.8733913273       25.9446286077
  H         2.6276395576       14.3438754346       23.1367382710
  H         2.0925516333       14.3547779195       24.8850674389
  C         3.7700708558       12.9315563947       24.2350581061
  S         1.9761985035        9.0394908469       22.9467445155
  C         2.1134405701        9.9678929093       21.4351382798
  H         2.0955073093       12.1315007045       20.9103086839
  C         0.6733601322       10.2384679195       26.2133452338
  H         0.2909488661       13.9401594208       25.8093904996
  C         0.0186128200       12.2846266139       27.1632607757
  H         4.1544701072       12.4442990613       23.3344016316
  H         3.7208108250       12.2231745400       25.0374063518
  C         4.9353542627       13.8568583311       24.5030283320
  C         2.4640023521        9.3405077096       20.1818234308
  C         0.2134349031       10.9767058096       27.3432199800
  H         0.5481087500        9.1566894678       26.3040301730
  C        -0.3290635043       12.7424636087       28.4310469895
  H         5.7029421867       13.5195592318       25.1877938648
  H         4.4444435199       14.7263262534       24.9348456540
  C         5.5994300925       14.2674887005       23.1947517461
  C         2.5659819056        7.9226966979       20.0106662700
  C         3.0103297130       10.1400400155       19.0064088766
  C        -0.1529484905       10.3164178537       28.6869817079
  C        -0.4333782936       11.6725609860       29.3099583671
  S        -0.7995103918       14.2538435351       29.1035157755
  H         6.2342749878       15.1043348990       23.3463520533
  H         4.8981055325       14.6250596292       22.4426734468
  C         6.5497062952       13.3436842748       22.5902882124
  N         2.2146929088        6.9418470601       20.9790886809
  C         2.9622092583        7.3443859446       18.8200572102
  C         3.3867554879        9.5469965924       17.8174524650
  H         3.0345090330       11.2365760815       18.9426788437
  C         0.9792816379        9.5192265074       29.4371511267
  C        -1.5298038112        9.5255211358       28.5722611191
  C        -0.8681544919       12.1637730883       30.5816261966
  C        -1.0049590581       13.5372210509       30.6253093373
  H         7.2249116054       12.8503734720       23.3602204133
  H         6.0804963929       12.4370393673       22.2270669451
  C         7.4587258700       13.9142497321       21.5283663674
  S         2.4027601028        5.4329597274       20.3687485709
  N         2.8109999613        5.9512439008       18.8035708298
  C         3.3184386634        8.0938414357       17.6351265165
  H         3.6719298364       10.2721471222       17.0341018780
  H         1.3731607733        8.6656927524       28.7570335891
  H         0.5252450723        8.9844252264       30.2818274015
  C         2.1301326819       10.4233874734       29.9456178552
  H        -1.3712658896        8.4969246813       28.2975285192
  H        -1.7842448669        9.4172893220       29.5863957628
  C        -2.6800851084       10.1400606821       27.7647808802
  H        -0.8639066045       11.5839956990       31.4411825014
  C        -1.3757251989       14.3621243479       31.8265396270
  H         8.3110730381       13.2436417281       21.3213588937
  H         7.8645326811       14.8656120868       21.8431311792
  C         6.6701925929       14.2602020843       20.2026667705
  C         3.4040230412        7.3991947088       16.3747105187
  H         2.3599279335       11.1662977481       29.1984059709
  H         1.7209225782       11.0769791507       30.7468322579
  C         3.3110494470        9.5888912418       30.4626958278
  H        -2.5562513453        9.8760947458       26.7437674302
  H        -2.7084015911       11.2219379833       27.9941868273
  C        -4.0306897379        9.6061074875       28.2418260208
  C        -1.6411066398       15.7861758230       31.9027075227
  C        -1.7924840109       13.5253081995       33.0824093239
  H         5.7315145553       14.8501973677       20.3297420665
  H         7.4023699350       14.8564015429       19.5937536252
  C         6.3240699920       13.0229572540       19.4854985648
  H         3.4214750708        6.3149519167       16.5223108552
  C         3.8970404007        7.8227084028       15.1426339368
  H         3.7243411043        8.8271956822       29.8036708230
  H         2.9292434366        8.9968567460       31.3297300118
  C         4.3986563824       10.4485938578       31.0067210475
  H        -4.1367094816        8.5387121452       28.2300977644
  H        -4.1355921907        9.9056857686       29.2316587030
  C        -5.2693201018       10.3201413927       27.7624074167
  N        -1.4536422744       16.6247023964       30.8150339773
  C        -2.0725218586       16.3425565905       33.1078544790
  C        -2.3021016856       14.1416489910       34.2086975344
  H        -1.8449634428       12.4055401260       33.1984247944
  H         7.2687770742       12.5807706239       19.2893376172
  H         5.6429981266       12.4579764082       20.1170481769
  H         5.9536372708       13.1601663323       18.5047904469
  S         4.2223001948        9.4100574802       14.6491804712
  C         4.1123322929        6.8117423894       14.0649519014
  H         4.2609990034       11.4099829709       30.4890748400
  H         4.2287929045       10.9058457872       32.0164900295
  C         5.7885175901        9.9021964679       30.8696016525
  H        -4.9854068721       11.3436875537       27.5759333359
  H        -6.1559970642       10.1978859319       28.4614681093
  C        -5.6331871768        9.9007553632       26.3393076553
  S        -1.7491860291       18.1110781588       31.4154920748
  N        -2.0953765006       17.7427879715       32.9705257203
  C        -2.3032712592       15.6695101004       34.3043206311
  H        -2.5881562360       13.5644612087       35.0592836478
  C         4.2897307315        8.8105710928       12.9811426231
  N         4.2244224291        7.4525682278       12.8752590057
  O         3.9378844083        5.6088163263       14.1989093023
  H         6.4800787156       10.6034105458       31.2325246254
  H         5.9252861924        9.8250937725       29.7994042508
  C         6.0099773924        8.5585225548       31.5978268002
  H        -4.7748532767        9.5354447595       25.7253441959
  H        -6.2413566255        9.0194468307       26.5988921154
  C        -6.5424533470       10.8050551211       25.5877059799
  C        -2.5761926168       16.5062953535       35.4228632938
  S         4.4680102781        9.7668196776       11.5351911340
  C         4.1134511309        6.6795616471       11.6474718216
  H         6.7503242382        8.6509824596       32.3629335355
  H         5.2256061423        8.3764440078       32.2584271515
  C         6.2015091832        7.3101805188       30.6942369675
  H        -5.9952244371       11.0649432729       24.6598773544
  H        -6.6185920412       11.7407314495       26.1263220752
  C        -7.8853060920       10.2811927268       25.1775834500
  H        -2.4635332586       17.5495064254       35.2774069230
  C        -3.0146988163       16.1688597990       36.6650749999
  H         4.5693244066        7.1695115741       10.8069796221
  H         4.6843688691        5.7938091736       11.6207330797
  C         2.6113354213        6.4579171990       11.2584636584
  H         6.8382774595        7.4844626547       29.8591222458
  H         5.1743427035        6.9600113572       30.4476774461
  C         6.8968918254        6.2225323922       31.5344998040
  H        -8.1925293188       10.7314553020       24.2334820415
  H        -7.8125550199        9.2522786226       24.7238027683
  C        -9.0446301041       10.2394562733       26.1761907598
  S        -3.5502480878       14.5594321206       37.2694913704
  C        -3.1752559104       17.2622490518       37.5963784157
  H         1.9734406384        6.3495648678       12.1083385421
  H         2.1555719932        7.3343645648       10.8145676195
  H         2.5293278331        5.6777811430       10.5266581483
  H         7.9211092255        6.4328661900       31.9318721743
  H         6.9914363054        5.4727733872       30.7861765353
  H         6.3217290338        6.0357296018       32.4337398712
  H       -10.0578261116       10.0851594315       25.7874456250
  H        -8.9864397908       11.1197096271       26.8608747523
  H        -8.8328930606        9.4797898633       26.8940445338
  C        -3.7878997623       15.3953471640       38.7672943022
  N        -3.6243177015       16.7531896707       38.7892289826
  O        -2.7970356302       18.3794942429       37.3950933193
  S        -4.3884275387       14.6789520715       40.3147674567
  C        -3.6645243200       17.5591352572       40.0317029918
  H        -3.7879255604       18.6243795890       39.8436004139
  H        -4.5965730151       17.4416311790       40.6365427585
  C        -2.3849405775       17.2742264462       40.8199112272
  H        -2.1886998741       18.0400539088       41.5596480103
  H        -2.3462436919       16.2919405227       41.2300065090
  H        -1.4652664144       17.3459970623       40.1536630880
