352
 i =    35500, time =    35500.000, E =        24.7751100442
  H        11.1933830434        7.4402181981       32.7221179930
  C        11.2510386812        6.3362683827       32.5456833223
  H        12.2461335044        5.9697094925       32.4493719779
  C        10.3978738092        5.9609328627       31.3886026256
  C        10.8166488041        5.6208236034       33.8230683079
  C        11.1218193260        5.8715039475       30.0627140563
  H         9.9291367003        5.0431475906       31.5810485577
  H         9.6695983935        6.7506335589       31.2533381677
  H         9.7521066148        5.7897067951       33.9453913122
  H        10.9444418626        4.5381030022       33.6015786669
  H        11.3294832942        5.9956014820       34.6769505811
  C        10.0866222243        5.5341261692       28.9629902995
  H        11.9154137129        5.1196847748       30.1393567527
  H        11.6544647878        6.7851517298       29.7238802271
  C        10.6492623585        5.5419665866       27.5638418643
  H         9.5301819401        4.6398004460       29.2104955462
  H         9.2959915757        6.2673317426       28.9166138558
  C         9.6038926732        4.9032803639       26.6259471949
  H        11.6153052689        5.0305096832       27.5409653366
  H        10.8708262220        6.4998913812       27.1693909497
  C         8.3816845064        5.7060411603       26.1676835309
  H        10.1549960199        4.5494648653       25.7766977574
  H         9.1976986948        4.0145944614       27.0741746803
  C         7.2251654166        4.8854937878       25.4724110858
  H         7.9627445717        6.1522855570       27.0601195589
  H         8.7221335185        6.4349548803       25.4825875630
  C         6.8938066379        3.4751245765       26.1207488981
  C         7.6672304579        4.1616052249       24.2181556431
  C         5.9710355872        5.7973686650       25.2522094224
  C         7.2492218368        2.3893260292       25.3249404833
  C         6.2563474463        3.0664467143       27.3318613479
  C         7.7535418386        2.7760415665       24.1166748840
  C         8.0891215536        4.8813559974       23.1065125397
  H         6.2128988780        6.5764510051       24.5915412775
  H         5.6603918648        6.3700900655       26.1515968142
  C         4.6907104607        5.1222925304       24.7782840374
  S         6.9427030886        0.8671278551       26.0905547284
  C         6.2456211876        1.7010978905       27.4852701735
  H         5.9039788897        3.8765760918       27.9676633315
  C         8.1891299444        2.2388733053       22.9866032075
  H         7.9894559333        5.9016444828       23.1487277835
  C         8.5280641697        4.3326607783       21.9935490003
  H         4.8330599308        4.7465574936       23.7799861015
  H         4.6877727873        4.1438535596       25.3580477621
  C         3.3490837441        5.9078699287       24.7574911035
  C         5.7635364755        1.0941793932       28.7919636008
  C         8.5866058073        2.9729819196       21.8562814131
  H         8.2276787105        1.1392288744       22.9184452003
  C         9.0004970393        4.7859790072       20.8066587710
  H         2.6955174332        5.4021953063       23.9497339771
  H         3.6479206278        6.8688985863       24.4145234799
  C         2.6649380817        6.0452860747       26.1562165030
  C         5.7679194129       -0.2946965128       29.0189580340
  C         5.4163208762        1.9125624868       29.9807257987
  C         9.0428570536        2.2921771472       20.6069814704
  C         9.3048924124        3.7237036194       19.9734554756
  S         9.4004344071        6.3072258017       20.1533831642
  H         1.7523379125        6.6572663951       26.0419181207
  H         3.2797369473        6.6781569407       26.7975524263
  C         2.2875327193        4.6822738028       26.7969024243
  N         6.0742705525       -1.2387618790       28.0383702338
  C         5.5834120181       -0.8906989603       30.2332852871
  C         5.1392708923        1.3149478989       31.1895390722
  H         5.5933782537        3.0471410983       30.0178697327
  C         8.0575528973        1.6015337128       19.6485956800
  C        10.3429015854        1.5309704912       20.7193085703
  C         9.7542031862        4.2005577511       18.6690199897
  C         9.7974171531        5.5639213450       18.5789790446
  H         1.7094452465        4.2095925252       26.0412246364
  H         3.0655194514        4.0136688126       26.9844627318
  C         1.4188470839        4.7714164332       28.0290059414
  S         6.0988755636       -2.7297493998       28.7105887204
  N         5.6711967568       -2.2867060039       30.1801243966
  C         5.1757964123       -0.1684848883       31.3687590529
  H         4.9912924420        1.9625068451       31.9704959596
  H         7.7165965107        0.7237488708       20.1588565726
  H         8.5178713152        1.2465666151       18.7427371162
  C         6.8195160750        2.4056092059       19.2794602334
  H        10.4278853022        0.8907284268       19.8110160183
  H        10.2156103451        0.7930700924       21.5548700430
  C        11.6474200111        2.3018720474       21.1225794808
  H         9.9399957693        3.4564690842       17.9131083402
  C        10.1472995277        6.3413764254       17.3190519833
  H         1.1342733131        3.7962433634       28.4076270623
  H         0.4273610797        5.2537184628       27.8865441369
  C         1.9590886109        5.6124060191       29.2543649962
  C         4.8848235559       -0.8093296288       32.6174522613
  H         7.0705221579        3.4526928479       18.9856996507
  H         6.2659310315        2.4938140969       20.1948553458
  C         6.0731920510        1.6603861181       18.1892530271
  H        11.5168653368        2.9758165436       21.9805110485
  H        11.9561280485        3.0595911517       20.4319988582
  C        12.8544033014        1.3382513276       21.1913052061
  C        10.1961948228        7.7302236909       17.1997702658
  C        10.3284228878        5.5697421942       16.0940876423
  H         2.3126629741        6.5717255750       28.8845835636
  H         1.0480202242        5.8493277868       29.8289906795
  C         2.9447764311        4.8722352085       30.0624014750
  H         4.7155097689       -1.9005335010       32.5832379816
  C         4.7030000083       -0.3363798127       33.8563766975
  H         5.9783070341        0.5763256026       18.5036080980
  H         6.6046470105        1.6759073866       17.2511716121
  C         4.6222989132        2.2166410802       17.9312270399
  H        12.8022314616        0.8327670737       22.1092523849
  H        12.6559671665        0.4695498866       20.5023911991
  C        14.2893076966        1.9699801257       20.9840110210
  N         9.9389165171        8.5912142711       18.3255283173
  C        10.5124276759        8.4235497669       16.0427992408
  C        10.7501831395        6.1765224437       14.9253229637
  H        10.2998411899        4.4773465664       15.9840738054
  H         3.1784118615        5.4797555364       30.9525953588
  H         2.5337135917        3.8897866881       30.3418808037
  H         3.8977913022        4.8398411754       29.5129050672
  S         4.3966707095        1.2894818828       34.4098696289
  C         4.5898971760       -1.3616657338       34.8806943002
  H         4.5994409982        3.2564203151       18.1443798505
  H         4.4203210871        2.1004363969       16.8318745478
  C         3.5547160228        1.3708214148       18.5593726732
  H        14.2491992447        2.7196722194       20.1449307787
  H        15.0978177732        1.2786416123       20.6364934593
  C        14.8439655074        2.7414139905       22.1813193841
  S        10.0727221707       10.0952456072       17.6743605130
  N        10.5457267452        9.8045332691       16.2017908650
  C        10.8543351232        7.7073310189       14.8423935740
  H        10.9671382399        5.6924304538       13.9775140100
  C         4.1470158273        0.5492701636       35.9897522832
  N         4.2737789568       -0.7782024108       36.0086003174
  O         4.9826839139       -2.5498802090       34.6795194200
  H         2.6422212002        1.9918137908       18.8715489681
  H         3.8967173304        0.9030412062       19.4706075177
  C         3.1389173164        0.3142192772       17.5859581198
  H        15.5766178809        3.4202848515       21.7772352429
  H        14.0648805916        3.4551133732       22.6142127290
  C        15.5011662758        1.8715689148       23.1785705244
  C        11.0223236870        8.5346133998       13.6657688614
  S         3.7890236864        1.4272884817       37.4306299338
  C         4.3290759346       -1.4808727291       37.2940770706
  H         2.6030112906        0.7410733853       16.6942205091
  H         4.0975485509       -0.1519213190       17.2548282009
  C         2.3537000769       -0.7366997260       18.3032466579
  H        15.6892351584        0.9072478245       22.7558445533
  H        14.8621567765        1.7442564989       24.0893365780
  C        16.7990141610        2.3789692163       23.6117595922
  H        10.7054525501        9.5693001092       13.7627751300
  C        11.6901381421        8.3004700202       12.4972556936
  H         3.5622484648       -1.1389318303       38.0369782264
  H         4.0816793446       -2.5176809527       37.0821556477
  C         5.7304697904       -1.5423830478       37.8014697523
  H         1.4438954824       -0.2625392902       18.7396957917
  H         2.7911781627       -1.1602109614       19.2063946273
  C         1.9134191462       -1.9337556542       17.5311304436
  H        16.6131555852        3.4474401315       23.8283990985
  H        17.1775595320        1.8760995319       24.5448789975
  C        17.7705342187        2.2386649616       22.4306551968
  S        12.2579361332        6.7318690462       11.9359114514
  C        11.8492241504        9.3606271327       11.4830691405
  H         5.6392182906       -2.2157318794       38.6705559852
  H         6.5361873809       -1.9254631271       37.1464110192
  H         6.0704598419       -0.5205653272       38.0343030318
  H         1.2122542328       -2.4108461186       18.1841789172
  H         2.8242952103       -2.4790921246       17.4097094059
  H         1.4498952428       -1.7063553300       16.5802396121
  H        18.4344978197        1.4586801438       22.6034841792
  H        18.3678459582        3.1784704967       22.4061355736
  H        17.3565007829        2.1648971405       21.3825664577
  C        12.6777071680        7.5523032888       10.4674324655
  N        12.3967279605        8.8358683569       10.3960517746
  O        11.4201674672       10.5314760341       11.6049394565
  S        13.1887922182        6.6839488652        8.9773081733
  C        12.5951801521        9.6786771566        9.1831982144
  H        12.8147193084       10.6833389800        9.4711202808
  H        13.4275623984        9.2691037655        8.5963621917
  C        11.3255359259        9.6171770905        8.3913284913
  H        11.4738854961        9.3386597195        7.2911934044
  H        10.5421091047        8.8696584448        8.7856453043
  H        10.8991334014       10.6593706418        8.3298445012
  H        -2.3757466713       14.5425301648       16.2175767746
  C        -2.7985454088       13.5846716678       16.2792798266
  H        -3.8226568459       13.8421620291       16.5516560002
  C        -1.9441032352       12.8577103272       17.2388611228
  C        -2.7933293011       12.8203219182       14.9461408042
  C        -2.4209026020       13.2672616631       18.6058881388
  H        -1.9133205999       11.7831378036       17.1283309331
  H        -0.9038963007       13.1315853533       17.1542980676
  H        -1.7337101432       12.6947692810       14.6781166992
  H        -3.4047316725       11.8929802956       14.8519824680
  H        -3.1377398052       13.5485871857       14.2083404175
  C        -1.9675223451       12.2978647521       19.6635884347
  H        -3.4884246008       13.0838953586       18.6371246267
  H        -2.1224854203       14.2722040622       18.8372007463
  C        -2.4964088574       12.5934947330       21.0941029217
  H        -2.3344772352       11.2935063322       19.3434538534
  H        -0.8590839564       12.3327718381       19.7190360257
  C        -1.4997724913       12.0937155725       22.2405588224
  H        -3.3781227465       11.8598339143       21.1378767482
  H        -2.8318521304       13.5852072596       21.3601443170
  C        -0.2791410142       13.0518188973       22.5326703230
  H        -2.1264501047       11.7739814992       23.0585741100
  H        -1.1123559949       11.2128585302       21.7999463440
  C         0.8495107746       12.4676366285       23.3300816701
  H         0.0437720172       13.6322119029       21.7240166609
  H        -0.6695646934       13.7842749355       23.1253521994
  C         1.3132489408       11.1595530033       22.6891152727
  C         0.5225790470       11.7138361071       24.5536659374
  C         2.0887323651       13.4735770893       23.5620499935
  C         1.1439441860       10.0560740947       23.4347700485
  C         1.7504352385       10.8260757109       21.4315338814
  C         0.5793024182       10.3709453482       24.6238726606
  C        -0.1267761979       12.3311117781       25.6333566368
  H         2.1408676097       14.1679717932       22.6983950864
  H         1.8375757342       14.1061541055       24.4518515495
  C         3.4010348462       12.8123411743       23.9224410003
  S         1.6597940990        8.6311533638       22.7184349797
  C         2.0135124126        9.5284248470       21.2895660814
  H         1.7844870261       11.6125589527       20.7349077735
  C         0.2810714364        9.7634019800       25.7926001948
  H        -0.3699147362       13.3706899091       25.6229325737
  C        -0.4836508622       11.7111583731       26.8304467333
  H         3.7166348505       12.3115394947       22.9921350166
  H         3.2229860005       12.1923584188       24.8451625573
  C         4.4485025486       13.9416873814       24.2640971962
  C         2.5789419248        8.8431001083       20.0741033752
  C        -0.3102941550       10.3831180904       26.9042334047
  H         0.3762494647        8.6901172128       25.8461285477
  C        -0.9222233590       12.1012088002       28.0582342020
  H         5.1706331914       13.6583055217       24.9941143058
  H         4.1257767570       14.8303423023       24.8271963656
  C         5.2244515563       14.3973011109       23.0222406533
  C         2.5307425421        7.3986863359       19.7870303754
  C         3.1053250091        9.7367376469       18.9983536255
  C        -0.7078295898        9.6618045246       28.2676161929
  C        -0.9866824757       11.0092162522       28.9565420762
  S        -1.2537841223       13.6538305603       28.7045415663
  H         5.6772072967       15.3941737182       23.1814317159
  H         4.5455452555       14.5096405481       22.1876195330
  C         6.3475217793       13.5154114385       22.5753961516
  N         2.1720860151        6.4199944645       20.7354697732
  C         2.9125576811        6.9061164001       18.5880633448
  C         3.4623159870        9.1374432370       17.8211101466
  H         3.1306723615       10.7358746259       18.9997352515
  C         0.3917316554        8.9502810264       29.0854870977
  C        -2.0079586888        8.9134047535       28.1996178691
  C        -1.2925397228       11.5412242009       30.2058743143
  C        -1.4259863643       12.9250371108       30.2915458478
  H         6.9606692932       13.1825399771       23.4747909018
  H         5.9222630011       12.5145949343       22.3694762678
  C         7.0927730028       14.0574220012       21.3695703557
  S         2.1704412188        5.0025713853       20.0193497978
  N         2.8085035582        5.5124010845       18.5658210664
  C         3.3566830097        7.6817083185       17.5724687471
  H         3.8283385280        9.7998617324       16.9843515286
  H         0.7179234797        8.1290080233       28.4586869214
  H        -0.0239127094        8.3686047237       29.9248658822
  C         1.6184245657        9.8186891771       29.5312928259
  H        -1.9315458852        7.8489609259       27.9105822159
  H        -2.4165161649        8.7770355983       29.2009420907
  C        -3.0966644243        9.5841355074       27.3943423043
  H        -1.2433699228       10.9023861220       31.0917316538
  C        -1.6563128283       13.7558983244       31.5509799157
  H         8.1308538499       13.9310308327       21.4398670564
  H         7.0640491345       15.1012390296       21.3330561862
  C         6.6560296605       13.3669477964       20.1046964496
  C         3.6710011720        7.0199887219       16.3007799158
  H         1.9205470997       10.4339347209       28.6924669257
  H         1.2492042780       10.4491631000       30.3216177544
  C         2.8030058464        8.9828778514       30.0579845728
  H        -2.8198103531        9.7938695024       26.3775636366
  H        -3.2831986448       10.5443291071       27.6893777654
  C        -4.3816958916        8.7993524810       27.6128359962
  C        -1.8351682813       15.1594744579       31.6065042677
  C        -1.7536302540       13.0669054286       32.8405398420
  H         7.2588099865       13.6312300157       19.2215396179
  H         6.8230363217       12.2519622272       20.1074948461
  C         5.1460919539       13.6950391123       19.6804062495
  H         3.5330127844        5.9971506366       16.2728996013
  C         3.9159437847        7.5113873725       15.0367882100
  H         3.3582355392        8.6208508549       29.2484729485
  H         2.3835128989        8.1011000195       30.5998640742
  C         3.6455323140        9.8383311107       31.0065288061
  H        -4.2562179562        7.7000875738       27.5666105052
  H        -4.8391571909        8.8303245759       28.5798631242
  C        -5.4518884837        8.9053339838       26.6048468105
  N        -1.4143313095       16.0250524514       30.5482073712
  C        -2.1159888128       15.8677634230       32.7306750470
  C        -1.9368500420       13.7910196535       34.0187626365
  H        -1.7376677105       11.9760062949       32.8998476206
  H         5.0028274003       13.7204384104       18.6058323017
  H         4.3650441143       13.0897801092       20.0743940532
  H         5.0295052176       14.8006385406       19.9254954219
  S         4.1779768239        9.1612717972       14.5856731000
  C         4.1131008317        6.4901255999       13.9074391465
  H         3.7685600491       10.8824828103       30.6376852156
  H         3.2317864614        9.8400952977       32.0003129938
  C         5.1349092590        9.2944233335       31.0594558647
  H        -6.2490721190        8.1962211926       26.9315664546
  H        -5.2454678491        8.5746698453       25.5882433553
  C        -6.1667010264       10.2881378450       26.5799079040
  S        -1.6544943870       17.5976834786       31.0060605010
  N        -2.1232496626       17.2457656647       32.5211286205
  C        -2.2809296777       15.2212677062       34.0379129726
  H        -1.8877530106       13.3264598559       34.9591096122
  C         4.4384497442        8.5233058919       12.9327442562
  N         4.3272720081        7.1693534099       12.7704813647
  O         4.2673979013        5.2508232227       14.0110333686
  H         5.6937978183       10.0621231991       31.6121587329
  H         5.6024385175        9.3018723480       30.0429191839
  C         5.4245373219        7.9918006501       31.8329365623
  H        -6.5280872349       10.3309524098       27.6093218163
  H        -5.4285344300       11.0431018277       26.5591111427
  C        -7.0299802891       10.5404253457       25.3771034764
  C        -2.3979508488       16.0249820743       35.2367159273
  S         4.8613083307        9.5212274926       11.6061156665
  C         4.3611186455        6.4559977060       11.4925997516
  H         5.9537661764        8.2179221721       32.8183984589
  H         4.4448933275        7.5290353802       32.0624682474
  C         6.0974772587        6.9208697502       30.9327475351
  H        -6.4787452829       10.5059808613       24.4339980599
  H        -7.2945392663       11.6250286460       25.4510441246
  C        -8.3116287709        9.7164851563       25.4163743269
  H        -2.1450151221       17.1113660299       35.1474939769
  C        -2.8781150723       15.6578629525       36.5100767011
  H         4.9592035539        6.8735868192       10.7039466449
  H         4.9233641063        5.5479311723       11.6342386520
  C         2.9813818600        6.3932422452       10.8554170505
  H         7.0473192445        7.3124840441       30.5101521111
  H         5.5442394781        6.6607063500       30.0551678313
  C         6.6100898808        5.7099710269       31.6604111325
  H        -8.9190134530       10.0075907161       24.5370227595
  H        -8.1128329653        8.7264123417       25.2103625166
  C        -9.0486288052        9.7945559337       26.7268540852
  S        -3.4133749825       14.0987742738       37.0857622365
  C        -2.9655357190       16.7423813127       37.4665030886
  H         2.1745117987        6.4407586261       11.5854550467
  H         2.8714444926        7.2009252501       10.1159133772
  H         2.9206311504        5.4079967133       10.3981454794
  H         7.2734202345        5.2322888234       30.9181928915
  H         5.8860176986        4.9560431011       32.0193597624
  H         7.4060827309        5.8027298416       32.4045050492
  H       -10.0946336183        9.9361039542       26.5241988325
  H        -8.6608524048       10.6724117884       27.2661058288
  H        -9.0503653984        8.8367306541       27.2453322228
  C        -4.0743287496       15.0234217500       38.4587394942
  N        -3.6595165953       16.3027432283       38.5301381071
  O        -2.7417841977       17.9503539389       37.1832761672
  S        -4.9552881144       14.2953456651       39.8209334218
  C        -3.8793664767       17.2076825891       39.6683299220
  H        -4.1337857490       18.2448778090       39.2943204088
  H        -4.7056128826       16.9223691786       40.2660319523
  C        -2.6346118917       17.4696513235       40.4646120462
  H        -2.5276947825       18.4916518747       40.7259538303
  H        -2.7472031298       16.8296244082       41.3027847832
  H        -1.7263297366       17.1748615063       39.8963939369
