352
 i =    65800, time =    65800.000, E =        24.7323761992
  H        10.0470308903        5.1120633629       31.0945554240
  C        10.6888252935        5.8223797774       31.5717006076
  H         9.9724308330        6.5642809109       31.8599024994
  C        11.6608428037        6.5305675645       30.5105179748
  C        11.3654914819        5.4546889526       32.9438729810
  C        12.3791019638        5.6417960905       29.4389391529
  H        11.0599395218        7.2401147474       30.0060308026
  H        12.3988162181        7.1401872530       31.0876854409
  H        10.8445665598        4.6349267441       33.4673403363
  H        12.4040191674        5.0860605635       32.7230802392
  H        11.3174710907        6.2563793370       33.6763301893
  C        11.4503189208        4.8057854129       28.4750385343
  H        13.0387749103        4.9520152574       29.9197533506
  H        13.0004266358        6.2851292141       28.8436770793
  C        10.7540017006        5.6904408050       27.4907929947
  H        11.9847384588        3.9876017411       27.9100504861
  H        10.6861165545        4.1566420689       29.0112618286
  C         9.7002187798        4.8858961619       26.6642297849
  H        11.4156905614        6.1673876650       26.7372233224
  H        10.3157265013        6.5472801868       27.9907929317
  C         8.6421772069        5.7955365501       26.0986017414
  H        10.1856374705        4.2197438060       25.9387572745
  H         9.2126110710        4.2228794648       27.3067649881
  C         7.4963721393        5.0139127678       25.4160923523
  H         8.0841814084        6.2415575818       26.9881334659
  H         8.9775040489        6.5510379335       25.4477852345
  C         7.0925256770        3.7132054097       26.0413124912
  C         7.8624007500        4.2919655059       24.1499693856
  C         6.2118932071        5.8732810543       25.0965540309
  C         7.3395094872        2.5752531856       25.2836531987
  C         6.5350584486        3.3726965756       27.2888970152
  C         7.6769328571        2.9415636309       23.9830038368
  C         8.2807487794        4.8877452066       22.9800121790
  H         5.6082245778        5.3028774715       24.3914865086
  H         6.5926630241        6.7415537988       24.4496770111
  C         5.1695849169        6.3547066617       26.1486581635
  S         7.0721968332        1.0641273388       26.0787343831
  C         6.4923737678        1.9800638021       27.4855677352
  H         6.3480604832        4.1487638856       28.0347795574
  C         8.0434665453        2.2930335323       22.7982923858
  H         8.4393260595        5.9793454408       23.0358015761
  C         8.5832199214        4.2769270434       21.7947360518
  H         5.0575453847        5.7339171581       27.0622131013
  H         5.4724145072        7.3624455389       26.5161261910
  C         3.7234431578        6.3296796898       25.4872387280
  C         6.1437658253        1.3462932140       28.8308520627
  C         8.4915287217        2.9594547154       21.6794152077
  H         8.0393795878        1.2126933917       22.7508320964
  C         9.0652502387        4.6750497990       20.5345260135
  H         3.4911639838        5.3965359757       25.0644533764
  H         3.7022949768        7.0019053033       24.5800135928
  C         2.5695938668        6.5776979165       26.3728392974
  C         6.1164980518       -0.0487500411       29.0676264414
  C         5.8792258562        2.2241976241       29.9846529354
  C         8.8861980250        2.2644388269       20.4698712143
  C         9.3012627962        3.5368018301       19.7177761709
  S         9.4883968992        6.1380494646       19.7364554109
  H         1.7856546724        7.0899194722       25.8212777007
  H         2.9716553264        7.2610114706       27.0849426334
  C         1.9059710003        5.1813189666       26.7783327757
  N         6.4130191958       -0.9697378985       28.0680928848
  C         5.8377948741       -0.6165459378       30.2813679696
  C         5.7147914786        1.7056716188       31.2087810357
  H         5.8171099687        3.2652060907       29.8129987417
  C         7.7083851426        1.5727561045       19.7330504833
  C        10.1470717147        1.3993871032       20.6724781173
  C         9.7056447688        3.9675404782       18.4312866502
  C         9.8233893768        5.3013160095       18.3505594022
  H         1.1609710911        5.0299214260       26.0293826212
  H         2.5706485558        4.3290779480       26.8002255059
  C         1.1584647256        5.3487276243       28.1170476991
  S         6.2491864608       -2.4739372726       28.7022665739
  N         5.8629437590       -2.0337844243       30.2255761720
  C         5.7136599950        0.2203326967       31.4509137254
  H         5.5466174624        2.3990699446       31.9297145688
  H         7.1995477265        0.9883828890       20.4446412125
  H         8.1566099924        0.9590302612       18.9285008804
  C         6.5981328079        2.4715019747       19.1656843664
  H        10.3339741540        0.7447200592       19.7328936773
  H         9.9587359904        0.8150844795       21.5406063018
  C        11.4433595535        2.0936778873       21.0864627463
  H         9.8092656895        3.2872927451       17.6501815402
  C        10.2252018804        6.0687403293       17.1485704725
  H         0.6839268356        4.2949970621       28.2733328493
  H         0.4778596958        6.1766803337       28.0637421478
  C         2.1607867566        5.4717713476       29.1970771479
  C         5.4122185627       -0.4250264550       32.6812729484
  H         6.8871182885        3.0005154182       18.2801056359
  H         6.4916281839        3.3619435173       19.7943072280
  C         5.1531797392        1.8878437142       19.0446008796
  H        11.3186874157        2.8529847019       21.8860985607
  H        11.7468799422        2.6952149673       20.1807568471
  C        12.6855418824        1.1506487999       21.4311716450
  C        10.2892838386        7.4553298821       17.0248479368
  C        10.5286758770        5.2090107563       16.0152262775
  H         2.9632105604        4.7323985199       29.2171265933
  H         2.5552220241        6.5198768007       29.0989674012
  C         1.3219826156        5.4693895540       30.4202541073
  H         5.5752790702       -1.4769649422       32.7379871706
  C         5.0367549417        0.0381437104       33.9456571670
  H         4.4688059650        2.7464448072       19.1507030666
  H         4.9873881703        1.0871452613       19.8038468880
  C         5.0287211955        1.1927815195       17.7288692173
  H        12.6012388727        0.8248559179       22.4285692065
  H        12.8376194370        0.3029165561       20.8033040364
  C        13.9454714900        2.0392945462       21.4706544262
  N        10.0189666395        8.3826295838       18.0551411631
  C        10.6328167868        8.1107933173       15.8296892843
  C        10.8244021460        5.8630553696       14.7708517630
  H        10.4967120018        4.1344343801       16.0622631919
  H         0.4999713381        4.7006224581       30.3295060074
  H         1.7962639516        5.4003015015       31.3561589758
  H         0.7135616398        6.3393389498       30.5697385669
  S         4.5624992637        1.5939473650       34.3559346962
  C         4.8255235874       -1.0593914547       34.9528442188
  H         5.1399603867        1.9245559058       16.9981543884
  H         5.6710734311        0.3403792987       17.4846932070
  C         3.5134346192        0.8258449855       17.4449586755
  H        13.7178050289        3.0590949710       21.9009307853
  H        14.2920118811        2.3110134315       20.4356850283
  C        15.0338838543        1.3448998017       22.2181495608
  S        10.2045003864        9.8862127481       17.4782086607
  N        10.6347673200        9.5405699767       15.9776917970
  C        10.9834653196        7.3500210156       14.7011504161
  H        10.9347534072        5.2281531031       13.8570303720
  C         4.2342428900        0.8815505788       35.9345272624
  N         4.3500921137       -0.4662957164       36.0676212771
  O         4.9482619903       -2.2891406841       34.8243562760
  H         3.3099862999        0.5589684796       16.4251512943
  H         2.9505797883        1.7151458959       17.6051881059
  C         2.9760128897       -0.2993193367       18.3212739977
  H        14.6804406090        1.2972801249       23.1952704625
  H        15.2465434488        0.3493915536       21.8891355242
  C        16.3386585145        2.1782629605       22.2076454035
  C        11.4026586531        8.0745437914       13.5528940082
  S         3.7186401325        1.8311755138       37.2036732493
  C         4.2622877437       -1.2837930331       37.3241966393
  H         3.1992940886       -0.2703098226       19.3732736879
  H         1.9018476821       -0.2013754479       18.4194914823
  C         3.1895986823       -1.7442873418       17.9036641615
  H        16.4108557432        3.0702740581       22.8198913739
  H        16.6250335265        2.4915947825       21.1943619922
  C        17.4956036432        1.2511491323       22.7998289369
  H        11.0919272486        9.0684900368       13.5840209320
  C        11.8269314594        7.7786628220       12.2848003662
  H         3.3918440268       -0.9035195391       37.8968105235
  H         4.2286923718       -2.2984707583       37.1130853154
  C         5.5308808814       -1.2883453221       38.1964653640
  H         3.1303853763       -2.3781269429       18.8516630038
  H         4.2388199922       -1.8548349148       17.5991404457
  C         2.2413649938       -2.3308331931       16.8793752615
  H        17.2013867335        0.8509384539       23.7259820215
  H        17.6542927386        0.3944965503       22.1585311733
  C        18.8621534503        1.9878623298       22.7723262489
  S        12.2138380673        6.2500915232       11.5765356603
  C        11.9283192455        8.8935577475       11.3295566985
  H         5.3402427488       -0.8094682225       39.1373100907
  H         5.9659337062       -2.3138158708       38.3820913979
  H         6.2825862565       -0.6832813861       37.6590673808
  H         1.2271483411       -2.2429848778       17.1847823084
  H         2.3647147990       -3.3890606053       16.6421968982
  H         2.2328349336       -1.7949400513       15.9655351240
  H        19.0588716009        2.1533818446       23.8122737872
  H        18.8410653165        2.9023316172       22.1767279987
  H        19.6454002392        1.3765666100       22.4311582193
  C        12.5599568120        7.1075507244       10.0796107707
  N        12.4170666319        8.4514185132       10.1537659908
  O        11.7094897301       10.0777161826       11.6389850398
  S        12.8956804168        6.2994692814        8.5370233131
  C        12.5373193746        9.3891105428        8.9701238708
  H        12.8559572721       10.3948782383        9.3313359816
  H        13.2177965234        8.9592031530        8.2266190172
  C        11.1640844939        9.5035198818        8.3028112437
  H        10.3393220999        9.2618285745        8.9400216123
  H        11.0194885862       10.5013763076        7.8957890828
  H        11.0329212318        8.7038088404        7.5112976304
  H        -1.7193927232       12.5124631481       17.4516623754
  C        -2.1418228443       13.3982967823       17.0122849537
  H        -1.4193018746       14.1932976980       17.0299439894
  C        -3.3249275565       13.8527292183       17.8550976129
  C        -2.5879499992       13.1131795515       15.5683705297
  C        -2.9475788680       14.1990056116       19.3181114498
  H        -3.6101160288       14.7614503109       17.4864179620
  H        -4.2127163862       13.1209370477       17.8051529731
  H        -2.3739876897       14.0270819374       14.9762212796
  H        -1.8661261624       12.3760701795       15.1669077986
  H        -3.5989193795       12.5753239190       15.5280070293
  C        -2.4709559884       13.0259476821       20.1916884541
  H        -3.8422558754       14.4344362704       19.8937510736
  H        -2.2731497046       15.0159077165       19.2682205658
  C        -2.5135911235       13.5176263101       21.6262823237
  H        -3.2541926949       12.2167834558       20.0913186022
  H        -1.4614312830       12.6358887834       19.8289035944
  C        -1.4008827787       12.7672195247       22.3140792228
  H        -3.5647356532       13.2777983816       21.9326992031
  H        -2.2523316063       14.5848765191       21.5588547446
  C        -0.1630711451       13.6495807394       22.4553674428
  H        -1.7511339400       12.5538661633       23.3185143045
  H        -1.2710826044       11.8318292069       21.8399678884
  C         0.9815730579       13.0075166656       23.2183962515
  H         0.0751323233       13.8780264141       21.3908541433
  H        -0.3263636247       14.5358255278       23.0684485818
  C         1.3605517668       11.7179598488       22.5455096465
  C         0.6263522782       12.2851060941       24.4932524058
  C         2.2291119810       13.9903098532       23.3423134249
  C         1.2067705075       10.6039443675       23.3426044332
  C         1.8293813854       11.3224615585       21.2480178120
  C         0.7584443955       10.9421215028       24.5928505717
  C         0.2775332171       12.9736251905       25.6603190469
  H         2.5221177794       14.3305250775       22.4204290478
  H         1.9203678400       14.7758271035       24.0917911107
  C         3.4356960605       13.3223996703       23.9281755408
  S         1.6684587862        9.1358216434       22.5779910548
  C         2.1144216449        9.9831056210       21.1285375429
  H         2.0223034890       12.1538701875       20.5838404490
  C         0.5368705689       10.3930757030       25.8211281866
  H         0.2331918112       14.1027455195       25.5541543773
  C         0.0536530260       12.4415284394       26.9486536239
  H         3.6676883681       12.4358489552       23.3925301753
  H         3.1888930704       13.0081058972       24.9325816666
  C         4.6428891309       14.1738856579       24.0808713837
  C         2.5660018490        9.2179151490       19.9379467671
  C         0.1807889110       11.1104041746       27.0178945408
  H         0.5967603441        9.3497019568       25.9379572041
  C        -0.2765166927       12.7891810535       28.2134926142
  H         5.3004954740       13.7943002429       24.8575856650
  H         4.1221251834       15.0369211829       24.5094053715
  C         5.2835411803       14.4987980832       22.7186279251
  C         2.6541293355        7.8118334349       19.6925497259
  C         3.1278069120       10.0752056442       18.8879275433
  C        -0.1197483689       10.3371297940       28.2815717016
  C        -0.4141453181       11.6537123419       29.0460031552
  S        -0.6344438729       14.2588262558       28.9753225158
  H         5.7803345965       15.3802589966       22.9266815841
  H         4.6466245113       14.6632444215       21.9082014118
  C         6.2943133009       13.3661493865       22.3859914761
  N         2.2682407525        6.7880832595       20.5253975697
  C         3.0605403991        7.3080641243       18.4255178937
  C         3.3942758652        9.6156603174       17.5967669945
  H         3.3305640203       11.1392856929       19.1500732537
  C         1.0619189461        9.5276673804       28.8490548662
  C        -1.4198430316        9.4141866630       28.1613790791
  C        -0.8638200657       12.0346090823       30.3534191999
  C        -1.0884358178       13.3887251991       30.4150091634
  H         6.9901834527       13.2818506901       23.2111764403
  H         5.7101143007       12.4974350270       22.3983554382
  C         7.0287340870       13.6068473974       21.1062170690
  S         2.3059339148        5.3323772460       19.7302607204
  N         2.9112783231        5.8994078108       18.3371500964
  C         3.4972242067        8.1706755266       17.3766036270
  H         3.9714466992       10.2580934570       16.9498190183
  H         1.4401418431        8.7487442005       28.1181963911
  H         0.7070045351        8.9306038210       29.7297573823
  C         2.2764124160       10.4942005176       29.3012641058
  H        -1.1929115312        8.4772486062       27.6126494384
  H        -1.8024759529        9.2003838116       29.1855690334
  C        -2.5713991582       10.1747136856       27.4152647478
  H        -1.0060213772       11.2470219261       31.0512212590
  C        -1.3539183965       14.1083044572       31.7081395300
  H         7.5996919967       12.6687310027       21.1048975510
  H         7.7343474052       14.4718853137       21.1729927166
  C         6.2607917026       13.6070618087       19.7919344185
  C         3.8508837436        7.5841697472       16.1452799810
  H         2.5588407013       11.2029279398       28.4170910637
  H         2.0765313498       10.9983726450       30.2857599464
  C         3.5450109302        9.6406591400       29.5611993182
  H        -2.3429087261       10.1259242853       26.3678305077
  H        -2.6140082137       11.2313427245       27.7157142288
  C        -3.9324608902        9.5208524179       27.3444476212
  C        -1.4392206580       15.5116381794       31.8599894382
  C        -1.6116732408       13.3409474988       32.9506031282
  H         5.3920027619       12.9789439213       20.0061614180
  H         5.9015865039       14.6785045962       19.7045210690
  C         7.1228399567       13.2251444599       18.5362220035
  H         3.7960480840        6.5024132201       16.2897813958
  C         4.0213114867        8.0148063008       14.8366374015
  H         4.3643972464       10.2019451710       29.1820704720
  H         3.6071953919        8.6516519649       29.0843344939
  C         3.9296659435        9.4007417848       31.0440631445
  H        -3.8586953672        8.6582530907       26.7303785455
  H        -4.3279308560        9.2607635693       28.2995683950
  C        -4.9737477715       10.4282798312       26.7836871443
  N        -1.1061191998       16.5154445555       30.9181754523
  C        -1.8118856971       16.1289781518       33.1011306782
  C        -1.9215485636       13.9246609510       34.1270716348
  H        -1.4624904605       12.3090899016       32.9711638196
  H         7.5928502868       14.1284797823       18.1539429736
  H         7.9766850725       12.5959102455       18.8584299378
  H         6.5477438215       12.7740665134       17.7228721329
  S         4.1423923340        9.5989669352       14.2989327811
  C         4.1662511752        6.9578806283       13.8073985295
  H         4.2373650955       10.3693843601       31.4723855901
  H         3.0372450182        9.0253419530       31.5597505891
  C         5.1861082085        8.4677267076       31.2293344932
  H        -4.4718915802       11.1888317018       26.1754388169
  H        -5.4829980936       10.8670618419       27.6286853813
  C        -5.9423095137        9.6488743508       25.9006493445
  S        -1.3525484593       17.9793668227       31.5638560924
  N        -1.8335770351       17.5510353147       33.0297766118
  C        -2.1199027805       15.3822915900       34.2413695635
  H        -2.1718300523       13.3307448579       35.0091777158
  C         4.5618616691        8.9243690597       12.7564521187
  N         4.6212421141        7.6067485552       12.6664207279
  O         3.9403312838        5.7654372544       13.8933550286
  H         5.5562776342        8.6481311063       32.2652820922
  H         5.9463904212        8.7768251975       30.4808732301
  C         4.9161026769        7.0389324281       30.9146204023
  H        -5.4087890041        9.1813425057       25.0629603337
  H        -6.5479159540        8.9501956302       26.5171078375
  C        -6.8460180830       10.4844942659       25.1725756441
  C        -2.3708886812       16.0990723433       35.4547888941
  S         5.0974122239        9.8314284136       11.3383961431
  C         4.6645822643        6.7437184972       11.4099131477
  H         4.0464874795        6.6694459455       31.4564480490
  H         4.6327579563        6.9406680856       29.8473875270
  C         6.0144866769        6.0741588232       31.2993468159
  H        -6.3065287609       10.9304598759       24.3149197598
  H        -7.0065011622       11.4484429229       25.6396880279
  C        -8.1354032096        9.9259591598       24.6595927672
  H        -2.0500558959       17.1182727075       35.5430654811
  C        -3.0205210179       15.6809022591       36.5930474020
  H         5.3993839129        7.1077103245       10.7233369378
  H         5.1382494866        5.8717079527       11.7847848433
  C         3.3546814383        6.6255206064       10.6085355895
  H         5.7213953539        5.0550516421       31.4701249987
  H         6.3680010962        6.3128560758       32.3486146935
  C         7.1535956049        6.1657558597       30.3460510032
  H        -8.5178155172       10.4765207893       23.8136346989
  H        -7.8390319856        8.9038146160       24.3197334332
  C        -9.1159783960       10.0256837941       25.8664186149
  S        -3.7480686124       14.1202004511       36.8266039917
  C        -3.1373270949       16.5608066158       37.7786676441
  H         2.4868337835        6.3785564660       11.2481354935
  H         3.2858206239        7.5828527686       10.1546536752
  H         3.5465154778        5.9567517790        9.8099519784
  H         7.9173399302        5.3372125883       30.2909423600
  H         7.7890839187        7.0104211104       30.5386379644
  H         6.7049845564        6.3049904986       29.4031077634
  H        -9.0659045450       11.0008328760       26.3487745532
  H        -8.6886157427        9.3928152973       26.6267207085
  H       -10.0758798154        9.6797011893       25.5862244783
  C        -4.0598700205       14.6882311577       38.5162549968
  N        -3.7199031799       15.9890048540       38.8465913866
  O        -2.6171888620       17.6631850301       37.7348435626
  S        -4.9036401472       13.9058222416       39.7891325573
  C        -3.9182435441       16.7090827743       40.1460718646
  H        -4.2140516707       17.7434249009       39.9580769168
  H        -4.6689331842       16.2784686227       40.8293995984
  C        -2.5521943957       16.8313515204       40.8945254410
  H        -1.7775582981       16.1696030603       40.5092556056
  H        -2.2091605499       17.8448407181       40.6401126999
  H        -2.5076994657       16.7893601955       41.9363482316
