352
 i =    53600, time =    53600.000, E =        24.7743140288
  H        12.1225165986        5.2278269467       32.2800759510
  C        11.1619534112        5.7312094707       32.4293334749
  H        10.4061855090        5.0374889908       32.2638701100
  C        10.9279342307        6.8033916576       31.3881141450
  C        11.0275900565        6.3059419814       33.8543043765
  C        11.3174244277        6.3395611308       29.9769042484
  H         9.8794632847        7.0597544343       31.4116880425
  H        11.5381094133        7.7173932188       31.6462673340
  H        10.3942805612        5.5915561460       34.3515712385
  H        12.0125696926        6.3417759597       34.3159612544
  H        10.8035655625        7.3189699313       33.8255199689
  C        10.1353336655        6.0766387126       28.9890210987
  H        11.9288151051        5.5316948671       29.9458444315
  H        11.9290875699        7.1103801039       29.5268028151
  C        10.7037871159        5.7088756722       27.5847589619
  H         9.6477086225        5.1331954569       29.2733041984
  H         9.3266795255        6.7669533010       28.8885864264
  C         9.6159520267        5.0994737620       26.6792302801
  H        11.6267570764        5.0916521176       27.7694685482
  H        11.0435415528        6.6507432846       27.1753991736
  C         8.3691236505        5.9760112413       26.3530050585
  H        10.1968671049        4.7419754866       25.7843649582
  H         9.2058037473        4.3268148329       27.2733124834
  C         7.1288102580        5.2717256106       25.5923856332
  H         7.9297925774        6.2823788354       27.3082397080
  H         8.7338168440        6.8767819492       25.8694789824
  C         6.8570877114        3.8788137125       26.2499905086
  C         7.7366568214        4.5905842224       24.3762944074
  C         5.8570466174        6.1585673611       25.4973222790
  C         7.3137459524        2.8523460509       25.4945155001
  C         6.2526883469        3.4214995397       27.4059564456
  C         7.7780264739        3.2279364467       24.2744297035
  C         8.2351387685        5.3278220179       23.2819600224
  H         6.0834159245        6.8659635782       24.7425869232
  H         5.6764147147        6.7893383780       26.3835700261
  C         4.5949962841        5.4837053414       25.0928803484
  S         6.9776061001        1.2426018267       26.1658296067
  C         6.3420128803        2.0626250125       27.5386830929
  H         5.7816153312        4.0395892584       28.0997033280
  C         8.1688725909        2.7009418363       23.1155740312
  H         8.2638811145        6.4526636819       23.3224806227
  C         8.6828087433        4.7525151581       22.1324237886
  H         4.6152586195        5.0773791238       24.1118283633
  H         4.3158725191        4.6414773805       25.6673316941
  C         3.3778718391        6.5112155849       25.1600311661
  C         5.8980638281        1.3390681859       28.7734720174
  C         8.5909173573        3.3966464766       21.9756810705
  H         8.1165185211        1.6189502147       22.9779452047
  C         9.1333643625        5.2262741296       20.9229800847
  H         2.6398505043        6.2574091535       24.4523241999
  H         3.6831712888        7.4979606472       24.8302637427
  C         2.7923751341        6.5828307221       26.6452687143
  C         6.0224629065       -0.0374067709       29.0935421679
  C         5.4232354024        2.1834237878       29.9154197916
  C         9.0180226403        2.8059604268       20.7201020558
  C         9.3491259143        4.1789731595       20.1013968843
  S         9.3630242926        6.7596667857       20.1372947857
  H         2.3470791670        7.5415309554       26.9040435465
  H         3.6794970252        6.5058967512       27.2724788312
  C         1.8466623507        5.4676567120       27.0518504176
  N         6.5669700126       -1.0539282228       28.2488234797
  C         5.7478529587       -0.5788189590       30.3395564567
  C         4.9353206918        1.6216706627       31.0712873702
  H         5.2344716894        3.2392529550       29.8724724082
  C         7.8503019156        2.0098946280       20.0671515398
  C        10.3170477040        1.8902305233       20.8418497703
  C         9.7711186030        4.5432969946       18.8246502391
  C         9.8609456187        5.8775505915       18.7316969420
  H         1.0753023584        5.2878401620       26.2629181059
  H         2.3385173909        4.4559121984       26.9410081599
  C         1.2123138343        5.6750052450       28.4317514122
  S         6.5193566430       -2.5042364961       28.9437207509
  N         5.9032977637       -1.9712767644       30.3633000109
  C         5.1686397458        0.1447021019       31.3683476525
  H         4.5550630981        2.2777780603       31.7752029570
  H         7.6445616421        1.1702055341       20.6783647748
  H         8.2593505262        1.5853919145       19.1084633945
  C         6.5576598479        2.7733215072       19.7202486257
  H        10.4146955264        1.6161071602       19.8246785809
  H        10.1116410936        0.9773996224       21.4690385053
  C        11.5039104240        2.6414502167       21.4351458987
  H         9.8346574091        3.8340836198       18.0206553105
  C        10.1025980586        6.6322535012       17.3980198290
  H         0.3758216628        5.0289210552       28.6086349339
  H         0.7322242741        6.6693799206       28.3957767030
  C         2.3596540004        5.6855137399       29.4789750119
  C         4.9344049864       -0.4653719331       32.6334904359
  H         6.7444112227        3.7430475816       19.3544441699
  H         6.0139056500        2.8871004696       20.6500324185
  C         5.6383965082        1.9394431333       18.8541609654
  H        11.2469364793        2.7598042827       22.4373531522
  H        11.6178474292        3.6809646195       20.9643835559
  C        12.7580805578        1.7924652964       21.4202458451
  C         9.9939064905        8.0401900728       17.1182744362
  C        10.4547567763        5.8428158385       16.1460247188
  H         3.1064574629        5.0224634107       29.0650515734
  H         2.8260154994        6.6616897231       29.5143706838
  C         1.9873913780        5.2473232822       30.8699359003
  H         4.9839172547       -1.5587630621       32.6245528621
  C         4.8602996110        0.0129292247       33.9047901337
  H         5.4251768246        1.2191148034       19.5704287218
  H         6.1961415294        1.4443993005       18.0718658428
  C         4.3766094620        2.6717801575       18.5052511182
  H        12.7807098055        1.1499395149       22.2515447725
  H        12.6404895756        1.1020121658       20.5945921013
  C        14.1662742141        2.5651490427       21.2970961700
  N         9.7767208831        9.0526906946       18.0520925667
  C        10.2515029817        8.6429454329       15.8685631284
  C        10.7268194486        6.4360031270       14.9020531796
  H        10.6706519912        4.7938103297       16.3924321065
  H         1.4899477991        6.0002804416       31.4728290015
  H         1.2177284148        4.4773921471       30.7592963729
  H         2.8835741258        4.8516661751       31.4660511047
  S         4.6546146589        1.6607016030       34.4285856577
  C         4.9631462750       -0.9299890349       35.0073458373
  H         4.3613309499        3.7778332562       18.8527608054
  H         4.4807507318        2.7426325772       17.4148409068
  C         3.0681767229        1.7728617259       18.6598417426
  H        14.1804624728        3.3882586298       20.6036794147
  H        14.7891704077        1.7931598008       20.9324514280
  C        14.6189123122        3.1694796943       22.6134514248
  S         9.8951776924       10.5077559432       17.3774502551
  N        10.3006073195       10.0547759660       15.8870065753
  C        10.6038770382        7.9084105217       14.7696944848
  H        11.0968287481        5.9179313109       14.0429965219
  C         4.4910526749        1.0157877619       36.0861119429
  N         4.7428030339       -0.3026274381       36.1748062761
  O         5.2792526266       -2.0765782704       34.8674092179
  H         2.2020479132        2.3966128493       18.7386414434
  H         3.0758035335        1.3230399340       19.6906036513
  C         3.0473250445        0.6840322534       17.5434881313
  H        14.9640197799        4.2181321644       22.6270779041
  H        13.7806105348        3.0946494318       23.2736879122
  C        15.5979798494        2.1938340014       23.2946099269
  C        10.9275017370        8.5926924511       13.5672846649
  S         4.1530959017        1.9194003299       37.5135096373
  C         4.7519297005       -0.9943083401       37.5231720539
  H         2.8499936829        1.0231137009       16.5598925667
  H         4.0958455385        0.4442855525       17.4482898525
  C         2.2657268869       -0.5825226408       17.8580386052
  H        15.0320719148        1.3300740783       23.5009296216
  H        15.9225779631        2.5584263584       24.2947377760
  C        16.8196014841        1.9182824330       22.3461916724
  H        10.7911831359        9.7028980405       13.6714982742
  C        11.3487990219        8.3074430938       12.2691925922
  H         3.9382916735       -0.6209399011       38.1461001557
  H         4.5763067469       -2.0272098106       37.3752522402
  C         6.2266247752       -0.9191916275       38.1538868126
  H         1.2496637355       -0.3880070027       17.5064401967
  H         2.2614526640       -0.8227114701       18.9645270795
  C         2.8505711083       -1.8459180353       17.0999630194
  H        16.4865890083        0.9997028039       21.9397778439
  H        16.8173075903        2.6504564650       21.5761114039
  C        18.1791622571        1.8258800730       23.1116090627
  S        11.8217144108        6.7268259587       11.6748724971
  C        11.5287662282        9.4553562423       11.2898945312
  H         6.6604963261       -1.9765503819       38.3600216724
  H         6.9882953552       -0.3214659582       37.4996526049
  H         6.0940762548       -0.3740273105       39.0421667893
  H         2.6987830912       -1.7822252630       16.0457138347
  H         2.4177365979       -2.7099510779       17.5740370691
  H         3.9109650398       -1.9524611375       17.3509422847
  H        18.0899193802        1.7694346066       24.1831081018
  H        18.8437718970        2.6282767071       22.8631214503
  H        18.7363597788        1.0115990783       22.6724887106
  C        12.2007587368        7.6153872947       10.1304209634
  N        12.1621136368        8.9655295838       10.2087182123
  O        11.2634688755       10.5868317075       11.5250617005
  S        12.8926361459        6.7749097908        8.6862638052
  C        12.5376832644        9.8741597357        9.1968843858
  H        12.9243391298       10.8265038814        9.6068774373
  H        13.2437231189        9.5604444948        8.4802301903
  C        11.2295892955       10.1434249652        8.3918755423
  H        10.5840423154       10.7840838748        8.8941131116
  H        11.4868412166       10.5364392592        7.3794552407
  H        10.7728122071        9.1607890161        8.1736980633
  H        -1.9482901174       12.8205868919       17.4493479399
  C        -2.2937228261       13.8230490344       17.0907019377
  H        -1.4520332561       14.5036231815       17.2829808794
  C        -3.4739949814       14.4009124875       17.9311177038
  C        -2.5497657296       13.7793614876       15.6144930763
  C        -3.5388843350       13.7798869431       19.3513622234
  H        -3.3979644278       15.4731972427       17.9971753976
  H        -4.3499043621       14.2149220007       17.3377750417
  H        -1.6832900514       13.6982872736       14.9960464492
  H        -3.1932763535       12.9274643221       15.2012739142
  H        -2.9662532478       14.6836110659       15.2308639061
  C        -2.1230401157       13.5397255866       20.0652396586
  H        -4.1816129751       12.9149370867       19.3394426243
  H        -4.1072847255       14.5420078655       19.9227975885
  C        -2.2321857596       13.8364251877       21.5083242938
  H        -1.6529509211       12.7163477846       19.7225451247
  H        -1.3746198217       14.2185832113       19.6334775138
  C        -1.2292573205       13.0404340106       22.3592044618
  H        -3.2118199230       13.4409933999       21.8685216179
  H        -2.2723215184       14.9109740149       21.6776065169
  C         0.0868115233       13.8336253683       22.5837552623
  H        -1.6646607245       12.7682442380       23.3075015529
  H        -1.0362247979       12.1737664641       21.7981063779
  C         1.1693134691       13.0715730636       23.4143687778
  H         0.4106545009       14.1619731091       21.6717988021
  H        -0.1796232826       14.7417432635       23.0515708689
  C         1.5585532949       11.7128764066       22.7668653385
  C         0.6919464969       12.3479885243       24.6507470555
  C         2.4209220194       14.0070106252       23.6572015789
  C         1.2111451783       10.5931855746       23.4936877258
  C         1.9547390264       11.3403127652       21.4559192215
  C         0.7038883512       10.9941592272       24.7504045768
  C         0.2201327366       13.0876986495       25.7543585545
  H         2.7688576102       14.5355522656       22.7492353684
  H         2.0632849586       14.8819888917       24.2298983145
  C         3.6125395082       13.3337410450       24.3305136857
  S         1.5889349467        9.1264025251       22.6794743463
  C         2.1687559342       10.0213307421       21.2634030423
  H         2.1844902950       12.1417603223       20.7645683076
  C         0.2855616764       10.3541161423       25.9368796099
  H         0.0918138089       14.1805120795       25.7120531771
  C        -0.0973525133       12.4672774686       26.8678915378
  H         3.9928674392       12.4859947193       23.7868480384
  H         3.3106167463       12.9889151419       25.3292369377
  C         4.7184716090       14.3164209695       24.5830281986
  C         2.6831040207        9.4539686651       20.0440793894
  C        -0.0456758354       11.1731358951       27.0891201178
  H         0.1889829447        9.2879081776       26.0216547777
  C        -0.3928354463       12.9307764758       28.1032216138
  H         5.3615015124       13.8467723893       25.3532159086
  H         4.4548978037       15.1498679740       25.0827353696
  C         5.5606720593       14.6903612061       23.3857616354
  C         2.6658135763        8.0741727006       19.6890608182
  C         3.1446842924       10.3325777596       18.9346939059
  C        -0.4041802843       10.4722471392       28.3513560985
  C        -0.6482003934       11.8405606535       28.9780675572
  S        -0.7030129662       14.4459250757       28.7905025168
  H         6.3171181688       15.4316131417       23.7187893652
  H         4.9943689880       15.0966075559       22.5619467979
  C         6.2965332660       13.5053443549       22.8501094458
  N         2.4953768217        6.9489061281       20.5385143455
  C         2.9019970896        7.5383261895       18.4411176751
  C         3.4774753755        9.8209971930       17.6828038729
  H         3.1286898546       11.3788139715       19.1712958073
  C         0.8546495536        9.7290718407       29.0095981160
  C        -1.6298366789        9.5906451544       28.0265171137
  C        -1.0923529999       12.2626085070       30.2192811239
  C        -1.1119204803       13.6200369553       30.3253814740
  H         7.0275765495       13.1704984266       23.5943702249
  H         5.6889510310       12.6169215273       22.6053967333
  C         7.0359607118       13.8449845804       21.5318609671
  S         2.5161276403        5.5055408906       19.8037342183
  N         2.7425817587        6.1605061519       18.3827454035
  C         3.3311061647        8.3422405032       17.3655762535
  H         3.7614515516       10.4390302629       16.8999786532
  H         1.1486389691        8.9150853240       28.4034579915
  H         0.6374171669        9.3107294573       29.9704687116
  C         2.0250740573       10.6984552636       29.2938897578
  H        -1.1958378110        8.9388968656       27.2925075166
  H        -1.8304432322        9.1553105578       29.0406694763
  C        -2.8828539641       10.2365730528       27.5073712918
  H        -1.2393131276       11.4665135179       30.9284178627
  C        -1.4292284326       14.3268785477       31.6357046005
  H         7.8748277941       13.2027214532       21.3633632169
  H         7.3674165447       14.9242844768       21.5226613556
  C         6.0964810563       13.7300743946       20.3307373571
  C         3.5465310277        7.7188579593       16.0575943925
  H         2.5240983568       11.0961074870       28.4085021551
  H         1.7182259011       11.6466987387       29.7456875805
  C         2.9917744240       10.0148034503       30.2833753328
  H        -2.6951666794       10.7426916063       26.5366893352
  H        -3.0588842409       11.0996964230       28.1618803184
  C        -4.0789342334        9.3471690808       27.4169547891
  C        -1.4860320530       15.7281831020       31.8385021047
  C        -1.9669430143       13.4660482276       32.7745618921
  H         5.5332793764       12.8315737364       20.3775566798
  H         5.2987948443       14.4763565803       20.3043771495
  C         6.9275656680       13.6426128883       18.9723470628
  H         3.2600028151        6.6803492695       16.0756512297
  C         3.8308270699        8.2548280184       14.7899798907
  H         2.8866740112        8.9905634665       30.1196402642
  H         2.5122139018       10.0505505775       31.2665702283
  C         4.5437745246       10.4363995963       30.2871899775
  H        -3.8961061661        8.6608676894       26.6145815495
  H        -4.1223390395        8.8563509365       28.3821835913
  C        -5.4463188945       10.0081321120       27.2508027613
  N        -1.2942195196       16.6541762142       30.8576903588
  C        -1.8284725116       16.2685612147       33.0476708572
  C        -2.2230996110       14.0286804379       34.0018887819
  H        -2.0450342164       12.3699836555       32.7490866365
  H         7.3137117275       14.5829183572       18.6219374710
  H         7.9106382282       13.0803740395       19.2039751178
  H         6.3724187926       13.2452143207       18.1756356334
  S         4.2345588691        9.8577224827       14.4068291006
  C         3.6640730803        7.2743849241       13.7107012536
  H         4.6710449085       11.3075631762       29.7042031670
  H         4.8093830357       10.6897660953       31.3028069826
  C         5.4245010844        9.3425303259       29.7486633825
  H        -5.4256259989       11.0399184824       27.6546328108
  H        -6.1922898310        9.2948342284       27.6839539185
  C        -5.7874758875       10.2234688821       25.7669958631
  S        -1.3787741156       18.1353363120       31.5190786317
  N        -1.8138838642       17.7029241920       33.0252336772
  C        -2.0926548165       15.4936939141       34.1936770624
  H        -2.5324610172       13.3902396150       34.8518784624
  C         4.1746528732        9.1963195404       12.7523338891
  N         4.0081306779        7.9027309048       12.5899871731
  O         3.2365454912        6.0947497538       13.7968260085
  H         6.4242782569        9.6613651996       29.6125101797
  H         5.1176768125        9.0664919374       28.7005955023
  C         5.4509061954        8.1021394365       30.7037889921
  H        -5.1271875299       10.9576401112       25.3418381317
  H        -5.5523183571        9.3190499998       25.2890286424
  C        -7.2028902853       10.7380949542       25.5354940977
  C        -2.3039528029       16.2415653728       35.4022792508
  S         4.8711488359       10.0712790066       11.3572569074
  C         4.1369767928        7.2224893551       11.3605025188
  H         5.7501011656        8.5522991879       31.6759436851
  H         4.4812906516        7.7060600482       30.9566375130
  C         6.4272172244        7.0119907267       30.2571905513
  H        -7.3345622660       10.9481522198       24.5106161465
  H        -7.4353466060       11.6622973929       25.9771390296
  C        -8.3216495078        9.7882088731       25.9506436145
  H        -1.9911870586       17.2875079301       35.4155115295
  C        -2.7187038880       15.8191294303       36.6329775614
  H         4.9919324505        7.6015664035       10.8153963863
  H         4.3472409903        6.1845200346       11.4718100506
  C         2.8740526613        7.3838717328       10.5060204996
  H         7.3946575670        7.4849788154       30.3127672261
  H         6.2699779705        6.8401981351       29.1756667839
  C         6.3278750046        5.7511563759       31.1340614536
  H        -8.0808141321        8.8115801272       25.5393415897
  H        -8.4217478364        9.6994331812       27.0746661926
  C        -9.7121431638       10.2266192701       25.3414132127
  S        -3.3791083859       14.2830277227       37.0867976635
  C        -2.6661323206       16.7789179161       37.7001165879
  H         2.8969213573        6.5980825313        9.7327528196
  H         1.9979010952        7.4498948184       11.1222911116
  H         2.9963216548        8.2539224605        9.8979210881
  H         6.3926497009        5.9546201876       32.2248752444
  H         7.0682992749        5.1028190231       30.7032647941
  H         5.4260984070        5.0965109892       30.9128287104
  H       -10.0903168252       11.0820380005       25.9456950648
  H       -10.5575571593        9.5194162557       25.3354962977
  H        -9.5884291671       10.6358022942       24.3710686511
  C        -3.7028998717       14.9594036860       38.6366955554
  N        -3.4146728885       16.2869983859       38.7078326177
  O        -2.4318279006       17.9721591521       37.5323208415
  S        -4.3537836649       14.0559989801       39.9675715413
  C        -3.6695166840       16.9955060997       39.9253719634
  H        -3.6126804462       18.0519587176       39.7570411918
  H        -4.6073918599       16.7342066653       40.3250370376
  C        -2.5101365244       16.8061790511       40.8905188264
  H        -1.7021967564       16.7200703254       40.1727225030
  H        -2.4464110220       17.7697821855       41.3913426457
  H        -2.6942405671       15.8721350176       41.4496938061
