352
 i =    84600, time =    84600.000, E =        24.8074535504
  H        10.4210348425        6.7941323800       32.0957852463
  C        11.3920708836        6.4522526937       32.4477278168
  H        11.9999058823        7.3014170972       32.6786099892
  C        11.9605268488        5.6887080446       31.2595899078
  C        11.1467984550        5.6853758434       33.6884217092
  C        10.9333019817        5.2622968714       30.2147128729
  H        12.6696262577        6.2808205088       30.8277946754
  H        12.3521369301        4.7693397105       31.5934598507
  H        10.2748461645        5.9499003485       34.2566171285
  H        11.1063709741        4.6417874561       33.5666548731
  H        11.9823361248        5.8141949899       34.3229136541
  C        10.6197847764        6.3558342751       29.0775084665
  H        10.0428138096        4.9367917402       30.7399782711
  H        11.3247964025        4.3874963247       29.7249681694
  C        10.8301933950        5.8187943105       27.6611785172
  H         9.5547157010        6.6731328043       29.1664322510
  H        11.0653274338        7.2377060644       29.3052270834
  C         9.7391378032        5.0307512545       27.0535259180
  H        11.6902643284        5.1770476050       27.6639563532
  H        11.0082737822        6.6545283089       26.9976538770
  C         8.6339241883        5.9897728870       26.5810651049
  H        10.1077317939        4.5629660490       26.1238528636
  H         9.4280073841        4.3486845032       27.8066711375
  C         7.5322291077        5.2346712996       25.7350508693
  H         8.0699057825        6.4111032402       27.4224514414
  H         9.1045765748        6.8259960459       26.1348330167
  C         7.2731666789        3.8307342154       26.3091496986
  C         8.0122517365        4.5251579572       24.4768369418
  C         6.2831657210        5.9712700050       25.3068908912
  C         7.5650253406        2.7361036876       25.5212216462
  C         6.8493193871        3.4225797489       27.5978063371
  C         8.0723540972        3.2132498313       24.3062218237
  C         8.4595713569        5.2800116114       23.3916145919
  H         5.7312946653        5.4544809656       24.5123024845
  H         6.5778385163        6.8860055992       24.7788693116
  C         5.3929322099        6.4434636222       26.5245206352
  S         7.1885923365        1.2117089602       26.2867971885
  C         6.6194934381        2.0840533395       27.7190611065
  H         6.7177190572        4.2226234620       28.3634199766
  C         8.6576886303        2.6871827508       23.2258553648
  H         8.4325928383        6.3724367421       23.5662560013
  C         8.9002295978        4.7560352763       22.2265713124
  H         5.7413593539        5.9308264118       27.4246805392
  H         5.4437802821        7.4988071906       26.6260386800
  C         3.9798753819        5.9960747878       26.2556582521
  C         6.2353061682        1.3682938443       28.9753426220
  C         8.9626492139        3.4262210643       22.1043576731
  H         8.7480178085        1.6218055713       23.0691414291
  C         9.3537145723        5.1922398703       21.0425991345
  H         3.9284710152        4.9339594019       26.1670763600
  H         3.6196098977        6.6343704264       25.4417709398
  C         2.8914452390        6.3002821638       27.4527084152
  C         6.3421678551       -0.0280016256       29.2474325608
  C         5.8830575798        2.2711228234       30.1611799036
  C         9.2994007629        2.7201525617       20.8616909417
  C         9.5098228744        4.1107304089       20.1754695523
  S         9.5989074746        6.7030587754       20.2610619413
  H         2.0459875302        6.7631598512       26.9579153798
  H         3.2817207353        7.0871628953       28.0373930068
  C         2.4351946286        5.0576777986       28.2700158026
  N         6.8043788405       -0.9678004744       28.3117413938
  C         6.1376471676       -0.5571462030       30.4573145551
  C         5.6744363478        1.6904047665       31.3615627951
  H         5.9963371049        3.3169957387       30.1265411033
  C         8.1718382018        1.9246861073       20.3002346009
  C        10.6784210337        1.9300798411       20.8424358102
  C         9.9330171971        4.5833173016       18.8999752453
  C        10.1226809833        5.9169005821       18.8021612841
  H         1.6923849240        4.4855855847       27.7026283303
  H         3.2657078273        4.4185699743       28.5171689257
  C         1.6419751582        5.5255308965       29.5000250608
  S         6.8806097094       -2.4159220218       29.0669300017
  N         6.1777108642       -1.9257837390       30.4495979943
  C         5.7771320636        0.1806653054       31.5985278658
  H         5.5278288686        2.4352733306       32.0933236004
  H         7.9193425867        1.0421678583       20.8813311981
  H         8.5730489457        1.5817641498       19.3837435751
  C         6.9104894213        2.7511829099       19.9897441174
  H        10.9306605414        1.6130925056       19.8780892175
  H        10.6112119183        1.0060260375       21.3790689702
  C        11.9030185908        2.5793257773       21.4478120146
  H        10.2277820232        3.8278688658       18.2005148496
  C        10.4961634412        6.5823906185       17.5744815776
  H         0.9741678949        4.6907878039       29.7654101306
  H         1.0582143311        6.4058651631       29.4057686517
  C         2.5899660241        5.9149814875       30.6489295096
  C         5.4611922558       -0.5469724045       32.8282987109
  H         7.2076579307        3.2199154221       19.0030293633
  H         6.7822877636        3.6144147617       20.6344162891
  C         5.6326133201        1.8770940669       19.9129890095
  H        11.6960286367        2.6436918313       22.5283802243
  H        12.0247984052        3.6129435546       21.2394826421
  C        13.2053896972        1.7961543736       21.3237228828
  C        10.5814610321        7.9929989712       17.3621211627
  C        10.6830763585        5.8066419370       16.3880759117
  H         3.2136268817        6.7683961308       30.3653684392
  H         1.9815359712        6.4076335596       31.5115334151
  C         3.4482640005        4.7676460758       31.1966018988
  H         5.8609309117       -1.5289042849       32.8398899976
  C         5.1076328385       -0.1239994035       34.0815059690
  H         4.8515130732        2.3033942047       20.5392567246
  H         5.8800467633        0.8866798176       20.3823849260
  C         5.1267642174        1.7104644731       18.4678304951
  H        13.0981518975        0.8748826347       21.9726489153
  H        13.1833664497        1.5097630094       20.2400549606
  C        14.4011770256        2.6561693411       21.7537479398
  N        10.3500614317        9.0081285654       18.3318454034
  C        10.7558592736        8.5686670006       16.1011900046
  C        11.0400466642        6.2742401889       15.1674710724
  H        10.7199180901        4.7200266260       16.4642542197
  H         4.2027747414        5.1853396962       31.9147679832
  H         2.8687251587        4.0020846085       31.5544685116
  H         4.0812872928        4.3117622831       30.4233064402
  S         4.7136543455        1.4805815150       34.4730023295
  C         5.0797832827       -1.1507444664       35.1367954389
  H         5.1352704277        2.6989054749       17.9333489390
  H         5.8526566691        1.0748011103       18.0175301885
  C         3.7385979912        1.0182521054       18.3455262741
  H        14.1444552591        3.3969324931       22.5044036698
  H        14.7219856135        3.2563837788       20.8543769039
  C        15.5643347852        1.7863530897       22.2559219136
  S        10.3921172681       10.4785813831       17.6733859916
  N        10.7562835474        9.9655788665       16.1514070229
  C        11.0434015663        7.7885217840       14.9649607688
  H        11.1896617981        5.5407719872       14.3569195336
  C         4.6490112970        0.8431315114       36.0698287459
  N         4.6081044156       -0.5008238244       36.2035674766
  O         5.0653553549       -2.3638493531       34.9526825655
  H         3.3557256600        1.2503680258       17.3736118038
  H         3.1394146261        1.6418843194       19.0984893253
  C         3.7766313337       -0.4771194016       18.6374324500
  H        15.2030324368        0.9430914598       22.9301067110
  H        16.1707925445        1.4236706286       21.4494009392
  C        16.4108403419        2.7199043434       23.1452396801
  C        11.3941862465        8.5531860350       13.7905235118
  S         4.0169443253        1.7482081072       37.3542333393
  C         4.4436123847       -1.1624665446       37.5523752773
  H         4.6258511967       -0.9728734129       18.1931531847
  H         3.9060017325       -0.5406403884       19.7338262798
  C         2.4065825309       -1.2104980303       18.1988771319
  H        15.6205646256        3.1398043009       23.8215796623
  H        16.8872462093        3.5711217482       22.5593995408
  C        17.3886909998        1.9789901153       24.0833136023
  H        11.4638439205        9.6695780893       13.8323213978
  C        11.8022836853        8.1934695354       12.5135172625
  H         3.5748599025       -0.7897075169       38.1366177265
  H         4.2788346906       -2.1818742363       37.2534199737
  C         5.6817397690       -0.9578785717       38.4675871801
  H         1.7646006279       -0.3913959046       18.1487332406
  H         2.0994433728       -1.9592986220       18.8798161964
  C         2.4799101450       -1.9647566872       16.8808099298
  H        17.5604553346        2.4986708351       25.0559492436
  H        16.8062018822        1.0830951654       24.2994676232
  C        18.6875864670        1.6627316661       23.3750740894
  S        12.1491045806        6.5966123463       11.9315872396
  C        12.0439330098        9.2146560392       11.4876204175
  H         6.3135036144       -1.8276071111       38.6509335098
  H         6.4292513450       -0.2985017028       38.0121801675
  H         5.3894132159       -0.4754760987       39.3884467001
  H         1.9085035205       -1.3192994249       16.2471674620
  H         1.8539867908       -2.8914678727       17.0240537908
  H         3.4131927643       -2.2835466770       16.4761305914
  H        18.5589661072        1.0122285468       22.5902737765
  H        19.4147753965        1.2445212139       24.0405607605
  H        19.1277001515        2.5839686639       22.9083352214
  C        12.7692328262        7.3710294390       10.4009289348
  N        12.6227240432        8.7286090784       10.4057677258
  O        11.6116029724       10.3311056262       11.5440031546
  S        13.3336909530        6.6334397898        8.9470754243
  C        12.8452649425        9.5743078036        9.2099127085
  H        12.9788256797       10.6382444169        9.5007852695
  H        13.7674794612        9.2745107284        8.8023819687
  C        11.6370920358        9.4690832997        8.2661113787
  H        12.0392988608        9.3910022098        7.2158850288
  H        11.0302595415        8.6608821604        8.5040360677
  H        11.1550214742       10.4140330560        8.3600581390
  H        -2.8482040946       15.1349511624       16.1112307876
  C        -2.7273538803       14.0984236453       16.2644004963
  H        -3.7459115069       13.7742626745       16.5098318993
  C        -1.7398459414       13.6338413373       17.3471174817
  C        -2.2733493383       13.7653513057       14.7966821360
  C        -2.0196894868       14.1361918006       18.8051945757
  H        -1.6338953125       12.5699668951       17.3312876343
  H        -0.7279545578       13.9946286872       17.0249269148
  H        -1.3096106223       14.3045633194       14.5174321390
  H        -2.0206395449       12.7243034315       14.7644275658
  H        -3.0736808396       14.0042313315       14.1080188254
  C        -1.4492238933       13.1060591655       19.7682317506
  H        -3.0674420072       14.1867662190       19.0745385219
  H        -1.5073685264       15.0546565449       18.9329891942
  C        -1.8727926523       13.5159210459       21.2128369024
  H        -1.7720031640       12.1234221524       19.5169912406
  H        -0.3403381817       13.1138964556       19.6943414035
  C        -0.8534124675       12.9152195313       22.1834911577
  H        -2.8842185564       13.1586057821       21.4239928030
  H        -1.8542972817       14.5764877159       21.4368164113
  C         0.4112874679       13.7930368310       22.3960027587
  H        -1.2794525609       12.6364051977       23.2070677217
  H        -0.5442136031       12.0204528704       21.6822958551
  C         1.5712710132       13.1977408348       23.1584751765
  H         0.7984759652       14.1623649921       21.4430770029
  H         0.1489574061       14.6293666593       23.0201555650
  C         1.9064252159       11.8379604709       22.5915602852
  C         1.1127697039       12.4580867992       24.4153261017
  C         2.7603673626       14.1504774046       23.2645180672
  C         1.6407781106       10.7548611464       23.3545300897
  C         2.5933000142       11.5180223655       21.3726611713
  C         1.1126629251       11.1436927641       24.5597860538
  C         0.6481521214       13.1628502401       25.5327256107
  H         2.8722978071       14.7746461862       22.3201749222
  H         2.3980847621       14.8439821698       24.0109450084
  C         4.0301652767       13.4288339903       23.7457534237
  S         2.0601933279        9.3355961394       22.5832310700
  C         2.6750942604       10.1707780258       21.1699907964
  H         2.9059370951       12.2742266571       20.7619893065
  C         0.6592871336       10.5017530455       25.6491270408
  H         0.4788041358       14.1731231471       25.4787600508
  C         0.2292938627       12.5455682307       26.6749820827
  H         4.5278919211       12.8947252737       22.9294422699
  H         3.7959820987       12.6106967155       24.4283246397
  C         5.1024970822       14.3997337038       24.2302688293
  C         3.0825664935        9.5104307100       19.9484720186
  C         0.2658982309       11.2073363860       26.8035113513
  H         0.6376046405        9.4589028913       25.8598185532
  C        -0.1816868718       12.9895287897       27.9231016871
  H         5.6078666680       13.8923985473       25.0595932292
  H         4.7807423599       15.3230228715       24.6007491295
  C         6.1109565609       14.6572915307       23.1211380783
  C         3.0554897745        8.1073518012       19.7243416486
  C         3.6288555516       10.3057986666       18.7947560620
  C        -0.1122692589       10.5047613144       28.0405772883
  C        -0.3568779460       11.8704433845       28.7472829368
  S        -0.2635104822       14.4617325707       28.8221083901
  H         6.7602531687       15.4896996712       23.2576531857
  H         5.6722649999       15.0091620808       22.2023704153
  C         7.0423383238       13.5049173198       22.7963382610
  N         2.6005825026        7.2075027570       20.6706063320
  C         3.4463731046        7.5123991605       18.5707100489
  C         3.7826029350        9.6839863596       17.5723257388
  H         3.5525010000       11.4034005847       18.8664242238
  C         1.1161798168        9.7638356354       28.7853903598
  C        -1.3349643893        9.6100683928       27.9091626521
  C        -0.7289775104       12.2540316093       30.0238703571
  C        -0.7485480716       13.5981371868       30.2169950335
  H         7.6231813693       13.3832381373       23.7114914658
  H         6.4836464813       12.6156934460       22.6152764832
  C         7.9716088653       13.5839211688       21.5144200631
  S         2.5063879252        5.7492531964       19.9153033080
  N         3.4318610346        6.1067518651       18.6603994036
  C         3.7238261753        8.2121612542       17.3736005775
  H         4.0948774026       10.3657670410       16.7686870442
  H         1.6277941512        9.0467854593       28.1186103806
  H         0.6630072188        9.1344496835       29.5940678934
  C         2.1320803340       10.6312410236       29.3454143866
  H        -1.1904474741        8.7801660849       27.1801353779
  H        -1.3675758163        9.1581648862       28.8800116089
  C        -2.6259288543       10.3837546562       27.5230908441
  H        -0.8873341869       11.5641753063       30.8401134351
  C        -1.0611293015       14.3777297600       31.4557264825
  H         8.6849070974       12.7740683904       21.4859739959
  H         8.6811072290       14.4560192647       21.5982066739
  C         7.1994981414       13.6420975735       20.1234073073
  C         3.9776553929        7.4702854200       16.1196183429
  H         2.4959187088       11.2176558971       28.5781024615
  H         1.7885637352       11.4230205246       30.0572961907
  C         3.2757117745        9.8055284979       29.9143564872
  H        -2.5695208135       11.0960629041       26.7104545610
  H        -2.8906383129       11.0107598986       28.3320966648
  C        -3.7865627480        9.4721652141       27.2269333093
  C        -1.1292645958       15.7937929735       31.6594219738
  C        -1.0979847287       13.6108466700       32.7470770939
  H         6.3921916181       12.8368166388       20.1045977491
  H         6.7429648754       14.5866690562       20.0393079542
  C         8.1923884659       13.4676050598       18.9746361934
  H         3.9949208257        6.3664274961       16.2420166280
  C         4.2869895717        7.9702066659       14.8114104092
  H         3.6270559476        9.2097178851       29.0278382229
  H         2.8699066223        9.0919322390       30.7239740519
  C         4.4231991605       10.7526689536       30.3552110653
  H        -3.6441757174        8.8322688840       26.3630082314
  H        -4.0622398945        8.7769513351       27.9476576269
  C        -5.0552023515       10.2033141909       26.9712110091
  N        -0.8678798161       16.6897999538       30.6419823577
  C        -1.4988375911       16.4563022644       32.8278060712
  C        -1.4689681461       14.2968503502       33.9587257632
  H        -1.0008576342       12.5241078095       32.7415721373
  H         8.5123443935       14.4651442338       18.5676917773
  H         8.9696413675       12.7485524834       19.2624539504
  H         7.7476066712       13.1169587255       18.0692693648
  S         4.5291609826        9.5750609950       14.3086479807
  C         4.4631136337        6.9533611081       13.7445721208
  H         4.6028353516       11.4610200387       29.5532239972
  H         4.0828316351       11.2444554239       31.2337282844
  C         5.6560672661        9.9860605266       30.8010446687
  H        -5.1477671061       11.0821452425       27.6250684469
  H        -5.8915622834        9.5995453532       27.4524982549
  C        -5.3110639326       10.5989233344       25.5068944303
  S        -0.9850242536       18.1822076282       31.2230249321
  N        -1.3625285261       17.8234453545       32.7316799451
  C        -1.8047002988       15.7339782421       34.0031757116
  H        -1.5453545077       13.7248697719       34.9233874361
  C         4.8503560044        8.9276256185       12.6499611103
  N         4.7722522967        7.5738223341       12.5760444973
  O         4.2904878234        5.7490154790       13.8888388069
  H         5.5646466782        9.4295849460       31.7361616755
  H         6.4507076897       10.7593266594       30.9507078806
  C         6.3640448408        8.9746343614       29.8436519666
  H        -4.4705916009       11.2046466305       25.2591281559
  H        -5.0090027302        9.7202738289       24.8741722375
  C        -6.6709407684       11.2143114413       25.2104770253
  C        -2.0985954309       16.4397237607       35.1803633784
  S         5.4103005922        9.8015913519       11.2214763743
  C         4.7651974442        6.8613135280       11.3355772748
  H         5.8949160636        8.9990112229       28.8345234386
  H         7.4110815377        9.2994430579       29.7325524853
  C         6.3506204940        7.4948225073       30.3200511992
  H        -6.6403339933       11.3505495182       24.0994334761
  H        -6.7846310566       12.2964714652       25.4918033340
  C        -7.8187683854       10.3349899288       25.6850322073
  H        -2.0710294508       17.5257824553       35.0230324603
  C        -2.4753667377       16.0176443697       36.4375571828
  H         5.3909500606        7.3865907655       10.6477632686
  H         5.1969660456        5.8509154471       11.5461396831
  C         3.3698467958        6.7633958598       10.8882260255
  H         6.3608606763        6.8606653407       29.4945039089
  H         5.4016710017        7.3407062283       30.8777708573
  C         7.5064749087        7.0911618983       31.2758486319
  H        -7.6648332040        9.2773076929       26.0144460205
  H        -8.2096647079       10.8878176547       26.5225915851
  C        -9.0193477562       10.1114416267       24.7903790829
  S        -2.9000215979       14.4137195210       36.9720378725
  C        -2.6540701856       17.0187075760       37.4964393674
  H         3.3459444936        6.4219930397        9.8385358548
  H         2.8262638801        6.0214021375       11.4794318674
  H         2.9314486462        7.7475600953       10.9342350685
  H         7.7312120801        6.0598938688       31.3782816261
  H         7.4732620187        7.5966756772       32.2330387924
  H         8.5130017858        7.3946902800       30.8921921953
  H        -8.6329200259        9.6675950064       23.8805167292
  H        -9.5271587431       11.0594538033       24.5508293647
  H        -9.7044029930        9.3841341801       25.1017031438
  C        -3.4374893442       15.1460818229       38.5462138346
  N        -3.2375727833       16.4367874945       38.5523082049
  O        -2.2413856900       18.1679488713       37.4160254780
  S        -4.4176166836       14.4487669973       39.8991405907
  C        -3.3926635873       17.2397323373       39.7612673061
  H        -3.6723766468       18.2438027925       39.5012766949
  H        -4.3103760003       16.9431362821       40.3637510356
  C        -2.1776479170       17.1438379027       40.6631694112
  H        -2.0350399020       17.9909799795       41.2956702981
  H        -2.3554341839       16.2817758052       41.3671217234
  H        -1.3278245232       16.9887180730       39.9539732342
