352
 i =    33900, time =    33900.000, E =        24.8093125082
  H        12.3778760739        7.0580000724       32.4887787700
  C        12.0032537959        6.0827978018       32.3057945525
  H        12.7818079536        5.3776507389       32.0491989678
  C        10.9361128559        6.1480200370       31.2479944512
  C        11.5270347104        5.5756795344       33.6306855226
  C        11.5394520649        6.1062471744       29.8094524916
  H        10.1669951954        5.2908000420       31.4015202502
  H        10.3092321038        6.9722147177       31.3636394772
  H        11.4796388873        4.4781239385       33.4129911674
  H        12.2760493915        5.6839174785       34.3746327146
  H        10.5631584416        5.9957831878       33.9859785374
  C        10.5267544240        5.8546768785       28.6505527339
  H        12.3937860396        5.4688117452       29.7812734153
  H        12.0191130990        7.0376209888       29.7307805980
  C        11.0220981927        5.9763025464       27.2106413821
  H        10.0504505716        4.8956763095       28.7209089678
  H         9.6701180715        6.5966629382       28.7249722758
  C        10.0962512697        5.2710028912       26.2998639332
  H        12.0122027932        5.4974335981       27.0934727213
  H        11.1970676142        7.0134479758       27.0373863407
  C         8.8385326130        6.0800756743       26.0504736492
  H        10.6215052060        5.1649786587       25.3633641992
  H         9.8961488032        4.2301108097       26.5754487077
  C         7.7715322215        5.3150034327       25.2539227272
  H         8.3305548173        6.3394700644       27.0281376451
  H         9.0700624943        7.0917998410       25.6446980796
  C         7.3987960563        3.9851185971       25.9945642908
  C         8.2589418883        4.6259894274       24.0432689622
  C         6.5235054946        6.1817401518       25.0625157638
  C         7.7801059663        2.9066966398       25.2202193150
  C         6.8035921359        3.6254390019       27.2306640329
  C         8.2725315259        3.3016879971       24.0128196551
  C         8.6072982564        5.3178440672       22.9405201872
  H         6.6256197728        6.9730697884       24.3655788815
  H         6.1449379912        6.7040240247       25.9615871963
  C         5.2728455703        5.4092979469       24.6601165249
  S         7.2972636187        1.4324238300       25.9801332818
  C         6.6073976714        2.2377306746       27.2995249727
  H         6.5084094394        4.3684165096       27.9614771804
  C         8.6281534806        2.6580565211       22.8511829590
  H         8.5840980470        6.3500757209       23.0213810132
  C         8.9912873000        4.7235965920       21.7618405988
  H         5.5384063022        4.8271285854       23.7751531813
  H         4.9415489200        4.6347214825       25.3928555305
  C         4.0631807481        6.3459832573       24.2276100145
  C         6.1364141466        1.5665265172       28.5681550767
  C         8.9394281103        3.3791496124       21.6404306696
  H         8.7315930292        1.5648566592       22.7663048699
  C         9.3191453077        5.1009718937       20.4661443794
  H         3.4938493139        5.8754278191       23.4214812962
  H         4.4571855568        7.2001592960       23.6574623043
  C         3.0885981321        6.7517913897       25.3393234419
  C         6.0676898737        0.1298719269       28.7687492606
  C         5.7925838236        2.3309565194       29.8285654847
  C         9.3232580131        2.6818915830       20.3617162117
  C         9.5325062278        3.9993747827       19.6967510753
  S         9.4278618927        6.6064157483       19.6268047462
  H         2.2789879576        7.2591319411       24.7953900203
  H         3.5799309693        7.4798788012       25.9709457559
  C         2.3489400955        5.5867858372       26.0146091549
  N         6.4502531307       -0.8421798480       27.7701855463
  C         5.6672808082       -0.5212124960       29.9470483374
  C         5.5868143626        1.6264939205       31.0379348287
  H         5.8410140375        3.4102837793       29.8502690948
  C         8.2478610060        1.6491040938       19.7414301250
  C        10.7206522494        1.9418424252       20.4054358463
  C         9.8641356094        4.3641400536       18.3719631636
  C         9.8785991022        5.7403820141       18.2277597819
  H         1.7280254544        5.0711449086       25.2497171750
  H         3.0427256583        4.7151820560       26.2822616646
  C         1.4180683189        5.9112414556       27.2296009376
  S         6.2418498834       -2.3062755271       28.4212320890
  N         5.7147047174       -1.9111400032       29.9015059080
  C         5.4357954219        0.1665244834       31.1665712134
  H         5.5539563716        2.3011410647       31.8722789904
  H         7.8483084444        0.9557608165       20.5203424264
  H         8.7223452302        1.0637830078       18.9665159901
  C         7.1081938252        2.4968907987       19.1310861740
  H        11.0362643383        1.4791456839       19.4292161892
  H        10.6172873649        0.9858144084       20.9914349968
  C        11.8435813928        2.6608978624       21.0156179985
  H        10.1940474272        3.6553351641       17.6663226897
  C        10.1184106907        6.5040820034       16.9787386584
  H         0.8111683088        5.1573008177       27.4709265054
  H         0.7274017957        6.7287048664       27.0467463355
  C         2.1700828933        6.3487145753       28.4754782679
  C         5.2604654926       -0.5877216751       32.4060700741
  H         7.4843720787        2.9102701547       18.1452142382
  H         6.9030401823        3.3582635912       19.7750557052
  C         5.8306511651        1.7342751663       18.7387970580
  H        11.5652565332        3.0487972010       22.0414062247
  H        12.1446116049        3.4757119553       20.3404897843
  C        13.0537033210        1.6626906363       21.0885910051
  C        10.1382820548        7.9356344513       16.8639324771
  C        10.3536869355        5.7865616770       15.7069765353
  H         2.8048614836        7.1945903838       28.2516070299
  H         1.5066207759        6.6975712296       29.2556894883
  C         3.1417604804        5.3956204453       29.0901502558
  H         5.4174449637       -1.6209388751       32.2920281420
  C         4.9171787425       -0.2160899113       33.6795215952
  H         5.3607128199        1.2495020646       19.5609638309
  H         6.1465423354        0.9760939503       17.9857356396
  C         4.9069128550        2.7646551555       18.0364459368
  H        12.8579481449        0.9948764648       21.8783468100
  H        13.0503121377        1.1270155609       20.2146363322
  C        14.3634739628        2.4730530507       21.3413311912
  N        10.0297133239        8.8945826717       17.8756694573
  C        10.2309077700        8.6385098015       15.6765467146
  C        10.5347042046        6.4554913623       14.5281301574
  H        10.6164357388        4.7905270855       15.7814919214
  H         3.1972396628        5.4441141588       30.1660784099
  H         2.8787621049        4.3523096255       28.8860515382
  H         4.1351617340        5.4947500317       28.6709187779
  S         4.5969585751        1.4055979617       34.1704087380
  C         4.7776452574       -1.2298139549       34.7467803330
  H         4.9792388988        3.6074179542       18.6438382784
  H         5.3578242655        2.9278825698       17.0452996871
  C         3.4143198286        2.3039928748       17.9899685912
  H        14.3973728140        3.3092582399       20.6837111957
  H        15.0800240224        1.7938803736       20.9173273477
  C        14.6467276444        2.8698593196       22.8119876190
  S        10.0599433237       10.4463341310       17.2751130149
  N        10.0725297190       10.0125129389       15.7142416893
  C        10.4627857153        7.9493925513       14.4083397600
  H        10.5963888825        5.8127621641       13.6644249381
  C         4.2103422651        0.7116843878       35.7462971297
  N         4.3747973419       -0.6527985837       35.8522401360
  O         5.0356990713       -2.4556717662       34.6624233289
  H         2.8333923580        3.0879920625       17.5067559932
  H         3.0602844685        2.1786233053       19.0500197100
  C         3.1807163459        1.0344445541       17.2497228294
  H        15.2626634532        3.6969723945       22.9726723599
  H        13.6386963143        3.0923396543       23.2609892294
  C        15.1962680712        1.6310476440       23.5742406628
  C        10.6907900029        8.6846120868       13.2264801088
  S         3.8901680322        1.6209816931       37.2155792319
  C         4.3884813491       -1.4319017623       37.0743598823
  H         2.4650775820        1.0561066323       16.4372122493
  H         4.0182350994        0.7157332392       16.7269443856
  C         2.7799837825       -0.0849831341       18.1757353082
  H        15.2847718254        0.8199979146       22.8125564257
  H        14.5050909121        1.3120418050       24.3496676826
  C        16.5739035715        1.9191624043       24.0555697452
  H        10.2690160987        9.6483754274       13.2142493135
  C        11.3774416694        8.3631295836       12.0528136313
  H         3.7600885213       -0.9035302118       37.8408127635
  H         3.9893007600       -2.4381017852       36.8770839535
  C         5.8142343425       -1.4074300489       37.6428813561
  H         1.8226713974        0.1406163569       18.6568197498
  H         3.5127358877       -0.1296799698       18.9342552343
  C         2.5693522944       -1.3754406851       17.4290007383
  H        16.4768975900        2.7751307555       24.7357638521
  H        16.9094364168        1.1491241800       24.7517932336
  C        17.7091802274        1.9621734472       23.0583515117
  S        12.1360900091        6.8051373343       11.7753060699
  C        11.3797683099        9.3668974645       10.9533764936
  H         5.8083474441       -1.3930908858       38.7359826723
  H         6.3527730543       -2.3148194196       37.3163128939
  H         6.3423740893       -0.5713773879       37.1273833742
  H         2.4096493247       -2.2773636267       18.0087926187
  H         3.4204442448       -1.5731078481       16.7671787218
  H         1.6401674619       -1.2655941338       16.8848244245
  H        17.9859319259        0.8605302296       22.8346930943
  H        18.5742403068        2.4100500977       23.5177495702
  H        17.3255064167        2.5035618752       22.1680570225
  C        12.5117643785        7.5218526581       10.2202785098
  N        12.0708034595        8.8099315403        9.9157445356
  O        10.8618083357       10.5010276898       10.9320567413
  S        13.2291051503        6.7503651258        8.8796118210
  C        12.1183578000        9.5078129197        8.6667481334
  H        12.0291225933       10.5876384359        8.9078530624
  H        13.0340156396        9.4144224064        8.2629225106
  C        11.0246312419        9.2030237057        7.6350716686
  H        11.3841578907        8.7085533824        6.7471298783
  H        10.2091630093        8.7056336776        8.0886532438
  H        10.7503778324       10.1681881532        7.2957910031
  H        -2.8433286431       15.3897631183       16.6565931751
  C        -2.4966188726       14.3534495874       16.8254438793
  H        -3.1820469955       13.7114356993       17.4245221621
  C        -1.1561201972       14.2543044358       17.4868813461
  C        -2.4228166832       13.7003588370       15.5069707171
  C        -1.2836078149       14.7199309872       18.9833474324
  H        -0.8226265811       13.2073164852       17.4709430560
  H        -0.5034459403       14.9282902988       16.9400989690
  H        -1.9832650157       12.7205048349       15.6991608624
  H        -3.2667529907       13.5073207705       14.8678821684
  H        -1.5757510411       14.2264426190       15.0176552573
  C        -1.2557606232       13.5682442041       19.9659598557
  H        -2.2297505660       15.1888925952       19.0508745353
  H        -0.4319779819       15.3446115558       19.2131062705
  C        -1.9218114203       13.8440056367       21.3307751429
  H        -1.7988032957       12.7968574450       19.4857083169
  H        -0.2998091267       13.1865250664       19.9051267444
  C        -1.0336935354       13.2862240626       22.4879951473
  H        -2.8507649595       13.3376111120       21.4250560389
  H        -2.1848923785       14.9032825467       21.5690129225
  C         0.1641194735       14.0669734176       22.8319426006
  H        -1.6911494329       13.0143849022       23.3564116769
  H        -0.6886828557       12.3436453327       22.1102284907
  C         1.3320273444       13.2764266793       23.4555361920
  H         0.4385352680       14.5062223824       21.9031158888
  H        -0.0450872159       14.9500262249       23.4691227524
  C         1.7541697055       11.9410012495       22.6599457655
  C         0.9560859513       12.4738818996       24.6482234587
  C         2.5987514776       14.1698245901       23.6535465839
  C         1.6059985521       10.8379974486       23.4800617727
  C         2.4103536400       11.6869353182       21.4568932040
  C         1.1200552151       11.1549621598       24.7145762535
  C         0.3814394704       13.1966297054       25.7161742572
  H         2.7631367573       14.7884674714       22.7612565143
  H         2.3572695041       15.0023801489       24.3469850383
  C         3.9132485434       13.4367450022       24.0692777982
  S         2.0611181866        9.3807936411       22.6134904931
  C         2.5161590186       10.3811321881       21.2390627077
  H         2.6428010534       12.5568883662       20.7616467027
  C         0.7510711261       10.5425364071       25.8958796988
  H         0.3464053615       14.2788719528       25.7237076119
  C         0.0393887254       12.5437650674       26.8665250888
  H         4.0504313108       12.5347039812       23.5918862619
  H         3.5996613594       13.1817279009       25.0897213104
  C         5.2541751156       14.2698094153       24.0799408202
  C         2.9946747522        9.6995122142       20.0069324909
  C         0.1760413955       11.1964611392       26.9426336261
  H         0.8459782270        9.4600182952       25.9149232394
  C        -0.3766580792       12.9237893820       28.1092189248
  H         6.0728110065       13.8319997623       24.6931647309
  H         5.0781538277       15.2702097380       24.4566121987
  C         5.8189167558       14.4157625323       22.6792343053
  C         2.7986691770        8.3107106581       19.7389925139
  C         3.2163242248       10.5498804292       18.7885849843
  C        -0.1698228861       10.4560526465       28.1708857803
  C        -0.5146548461       11.7848412562       28.8930420791
  S        -0.6607208762       14.4121486536       28.8929806452
  H         6.6150331327       15.1919059798       22.7946329073
  H         5.0696631404       14.8520873034       22.0469547160
  C         6.3116019263       13.0272964436       22.0854513063
  N         2.4605321594        7.2734840307       20.6918896017
  C         3.0501273456        7.7132454635       18.5082786431
  C         3.5204942854        9.9312433759       17.6022449240
  H         3.1738265888       11.5480300845       18.9134545611
  C         1.1017491153        9.7089735202       28.7675481280
  C        -1.4558915028        9.6161382032       28.1041497953
  C        -0.8829354360       12.1716913555       30.2160318001
  C        -1.0205664406       13.5205046966       30.3876130174
  H         6.7820193362       12.6088882686       22.8981310919
  H         5.5403678333       12.3214062795       21.8882065582
  C         7.3031378626       13.1333628859       20.9469823906
  S         2.3385710552        5.8719678224       19.9092383063
  N         2.9243466359        6.3253776104       18.4238419103
  C         3.3986930372        8.5002889201       17.3455417041
  H         3.6720007030       10.6225446473       16.7924635441
  H         1.6109583190        9.1988078055       27.9728446935
  H         0.6558512657        9.0290411974       29.4449274223
  C         2.0621608333       10.6586336444       29.5195854237
  H        -1.3388816569        8.7309249555       27.4014577582
  H        -1.5565144962        9.1679997767       29.1500444563
  C        -2.6927598118       10.4220312838       27.6582174171
  H        -1.0653925405       11.3498335767       30.8715742141
  C        -1.5058637585       14.3244070319       31.5804535219
  H         7.6873500583       12.1387434581       20.7168889831
  H         8.1995565286       13.6072159082       21.3339411281
  C         6.8567264165       13.7984329558       19.7301581342
  C         3.6021558858        7.8082480136       16.0761138817
  H         2.3696149066       11.4956067757       28.8779192088
  H         1.5692326754       11.0580118684       30.4062216566
  C         3.1469901811        9.7546599552       30.1478059033
  H        -2.5567366328       10.8202849777       26.6501590063
  H        -2.8385030486       11.3129250807       28.2329079752
  C        -3.9187959761        9.5401674288       27.6559009615
  C        -1.5803711645       15.7223010837       31.7906454321
  C        -1.6927556481       13.5312455182       32.7841605256
  H         6.5842615665       14.7477294564       19.9669500369
  H         7.5380565790       13.7808142994       18.9147918237
  C         5.6245498535       13.0793064671       19.2574662252
  H         3.9651114463        6.8093056862       16.2133789020
  C         3.7763552167        8.2555531864       14.7800705077
  H         3.5890996581        9.1318511424       29.3088316957
  H         2.7806123313        9.0702004523       30.9054077015
  C         4.2673276159       10.5338024371       30.9380401250
  H        -3.7523903461        8.7450349342       26.9464182562
  H        -4.2911205156        9.1578013846       28.6515044174
  C        -5.1358776769       10.3534914631       27.1048327999
  N        -1.2640687558       16.6382690895       30.7460107948
  C        -2.0031331224       16.3196209055       32.9526137768
  C        -2.0474770139       14.1596490357       34.0245955032
  H        -1.4978658878       12.5400291540       32.8762330047
  H         5.5773684388       12.9985930693       18.1406188974
  H         5.6953018245       12.0270914833       19.5793105925
  H         4.7257111013       13.4587217993       19.6986579078
  S         3.9160369151        9.8946604006       14.2662575694
  C         3.9439011892        7.2418170838       13.7721455944
  H         4.1974708285       11.6336943079       30.6595248618
  H         4.0797976722       10.3053339062       32.0532664063
  C         5.6223032053        9.9332926190       30.6995961234
  H        -5.1160691117       11.3590715850       27.4366875330
  H        -6.0913806797        9.9500844301       27.4553017543
  C        -5.3165713525       10.3134251554       25.5683826507
  S        -1.3050166637       18.1026805454       31.3949517096
  N        -1.8723480091       17.7241901159       32.8845900827
  C        -2.3075010164       15.6210329963       34.1055424880
  H        -2.1014198616       13.5729967392       34.9707663824
  C         4.1349488637        9.2118040328       12.5846975373
  N         4.1611232713        7.8358635188       12.5724331703
  O         3.8477533972        6.0279429869       13.9880613066
  H         6.2831026541       10.6344454145       31.1835972645
  H         5.7750595120        9.8608291779       29.6306748838
  C         5.7953283153        8.5849762372       31.4441005027
  H        -4.4071552710       10.4253068608       25.1369193404
  H        -5.6336715397        9.3988811762       25.2502420578
  C        -6.3376452820       11.3339823086       25.0827140974
  C        -2.6490289195       16.3484275524       35.2864017878
  S         4.0309285987       10.0102447952       11.0929758531
  C         4.2411562109        7.0403660224       11.3696718903
  H         6.1720751513        8.7671494166       32.4623161378
  H         4.9055790022        8.1636016448       31.8725285743
  C         6.6322432057        7.6704852964       30.5966674440
  H        -5.7942112975       11.7475517361       24.2065197354
  H        -6.5259118378       12.2484857970       25.7042550718
  C        -7.6012815061       10.7038979266       24.5709113052
  H        -2.3596732582       17.4111213077       35.1757154038
  C        -3.1905199914       15.9892206269       36.4953493694
  H         4.8221403585        7.5326974104       10.6049386674
  H         4.8697000349        6.1453469541       11.4120073899
  C         2.9393469558        6.6740613602       10.7208177756
  H         7.5590671558        8.1939458143       30.2156117273
  H         6.1237229022        7.5099000468       29.6217496034
  C         7.0797997999        6.4494559273       31.2486564049
  H        -8.1626667236       11.1675442829       23.8025369137
  H        -7.2885846998        9.6987205780       24.1087732737
  C        -8.6003334332       10.3706283399       25.6368621899
  S        -3.8592978628       14.4463945641       36.8514754477
  C        -3.4516472241       17.0147360782       37.4899275255
  H         2.4195240523        5.8702162136       11.2810532473
  H         2.2334998979        7.5038717550       10.8475725376
  H         3.1109247610        6.4375717797        9.6557515479
  H         7.8009907074        5.9220664227       30.6507427549
  H         6.2456425426        5.8323540923       31.5161711240
  H         7.6463595469        6.6546814800       32.1529359912
  H        -9.5881431746       10.3457075033       25.2166054107
  H        -8.5668890273       10.9813983152       26.5915028256
  H        -8.3967237504        9.3164182511       25.8428164733
  C        -4.3458910348       15.1527961762       38.3485967568
  N        -4.0453352180       16.4598417086       38.5283635082
  O        -3.0742234523       18.2042043927       37.3594783171
  S        -5.0368287534       14.1885344150       39.7131401717
  C        -4.1256622380       17.2686477277       39.7809193373
  H        -4.4745685674       18.2386032200       39.5863564814
  H        -4.7950520492       16.7810863109       40.5320041871
  C        -2.7515501655       17.2320358686       40.4303019070
  H        -2.0981940443       17.8963538678       39.9265667257
  H        -2.6353353714       17.6004590895       41.4585332902
  H        -2.2378792996       16.2757668509       40.3004761011
