352
 i =    19300, time =    19300.000, E =        25.3926242682
  H        12.0951181836        6.5385956996       31.5189858235
  C        11.2140800113        5.9619779611       31.8091816743
  H        11.5658444625        4.9829446730       31.5141834542
  C         9.9802844179        6.3628770749       30.8756459074
  C        10.9053457443        6.1430773393       33.2582182458
  C        10.3994294262        6.6427998233       29.4596161384
  H         9.2757885419        5.5666231116       30.9742656560
  H         9.5086083692        7.2977232000       31.2467254464
  H        10.2163827631        6.9613880516       33.3357607870
  H        10.5740911001        5.2941530163       33.8076712415
  H        11.8162302277        6.6108750599       33.7603280757
  C        10.8330354325        5.4446381111       28.6142031394
  H        11.3624859434        7.2264114339       29.6409731855
  H         9.5769841710        7.2722893202       28.9943856988
  C        10.8392788631        5.8637781228       27.1553841541
  H        11.8855165203        5.0333750258       28.8777141085
  H        10.0747245133        4.6993814423       28.7938787197
  C         9.7114332483        5.3587833338       26.2479866344
  H        11.6981459165        5.4599385175       26.6601952707
  H        10.9255303499        6.9694185298       27.1402092682
  C         8.4658476265        6.2618852284       26.2104495636
  H        10.2042143992        5.4213815356       25.3080030410
  H         9.4052123251        4.3469738265       26.3778629358
  C         7.2045594468        5.5800221032       25.4424295372
  H         8.1629878638        6.4550827841       27.2346862407
  H         8.6915549938        7.2477350283       25.7737671967
  C         6.8842304891        4.2870696582       26.1742829326
  C         7.6878097773        4.8725839074       24.1843553305
  C         6.0410254716        6.6080867712       25.2757980108
  C         7.2244987396        3.1692404124       25.3486303437
  C         6.4498289272        3.8159991341       27.4790692196
  C         7.7027746466        3.5267673857       24.0796353887
  C         8.1708072853        5.5958993510       23.0274859982
  H         6.3024683615        7.3952286099       24.5136836487
  H         5.8182281081        7.0835501298       26.2593482166
  C         4.7403982245        5.8441686049       24.8580477807
  S         6.8060266194        1.6123096511       26.0883967456
  C         6.3235160483        2.4243154690       27.5709973099
  H         6.3172964384        4.5169586415       28.2677781992
  C         8.0722928601        2.9157945449       22.9562929563
  H         8.1688107290        6.7263217142       23.0602623403
  C         8.5338703158        4.9261905439       21.8158092786
  H         4.8942854903        5.4835330823       23.8262031540
  H         4.4704693452        5.0159736569       25.4289353844
  C         3.5301660404        6.8375238789       24.8419210917
  C         5.7499064922        1.7157104524       28.7886685539
  C         8.4858346344        3.5339374371       21.8064289167
  H         8.1939978084        1.8534581328       22.9772566203
  C         8.8965658597        5.2425130523       20.5200846444
  H         2.8261518879        6.6371729510       24.0019916417
  H         3.8763159394        7.7842693383       24.5016664438
  C         2.6962134609        6.8502358788       26.1462893177
  C         5.8247245690        0.3450065834       29.0679108937
  C         5.1742085353        2.4951403992       29.8884254436
  C         8.8427552055        2.7198399141       20.5546137280
  C         9.0982514012        4.0603632501       19.7812116984
  S         9.3292135833        6.7257056560       19.6665877679
  H         2.0547218195        7.7460317963       26.0555234391
  H         3.3600830724        7.0251160635       26.9527716545
  C         1.8532273768        5.6461000424       26.4009081256
  N         6.0920613129       -0.5763675500       28.1299955736
  C         5.5978459368       -0.2195157573       30.2908834936
  C         4.9115316939        1.9824587896       31.1431089645
  H         4.8859359996        3.5139222405       29.6950396025
  C         7.6585567811        1.8582133095       20.0340724467
  C        10.1149639448        1.7986419277       20.8257895166
  C         9.6485537871        4.4280214043       18.5129127806
  C         9.6819471109        5.7671510544       18.2875304691
  H         1.0780479840        5.7057948355       25.6832548631
  H         2.1940276172        4.7121898417       26.1361048169
  C         1.2874013201        5.6334793924       27.8658393212
  S         6.0762745951       -2.0738309887       28.7602054976
  N         5.5823784801       -1.6266965208       30.2518387008
  C         5.1460270102        0.5516043096       31.3746853967
  H         4.4268900090        2.6660495601       31.8962949295
  H         7.5104800542        0.9766489969       20.7307756913
  H         7.8725951721        1.5561168809       19.0048518200
  C         6.2694114845        2.5202347895       20.0619524384
  H        10.2992785384        1.2711348901       19.9336734522
  H         9.8867099719        0.9528702571       21.5016801424
  C        11.3985905707        2.5626018357       21.1790759001
  H         9.8604801469        3.5804824212       17.8876911681
  C        10.0440331265        6.3851174490       16.9753503588
  H         0.4056422253        4.9311797213       27.9395096057
  H         0.8405472950        6.5888030596       28.2790173859
  C         2.3438803298        5.3749590054       28.9911287497
  C         4.8764627639       -0.1523587795       32.6027912595
  H         6.2637211414        3.5047006095       19.5520340511
  H         5.9830612773        2.6430936220       21.1387584680
  C         5.3299753202        1.5518984506       19.4716836963
  H        11.2375324650        2.9764252524       22.1947977438
  H        11.5928221180        3.4455359440       20.5876864975
  C        12.6705806647        1.7209400088       21.2203522096
  C        10.1853308646        7.8460314339       16.7679434431
  C        10.2792155654        5.5552065692       15.7854368980
  H         2.7232695266        4.3522255568       28.9712273530
  H         3.2999011754        5.8055488554       28.7811007542
  C         1.7126088897        5.5930384864       30.3942646164
  H         5.2206856541       -1.1943059266       32.6158873230
  C         4.6637255258        0.2780676844       33.8858044422
  H         5.1776311412        0.7299005320       20.1591353176
  H         5.7684553964        1.1237008557       18.5654814566
  C         3.9952375401        2.2385403520       19.0035808894
  H        12.7285703766        1.3320027825       22.2021500455
  H        12.6390998080        0.9348731019       20.4108037123
  C        13.9179499384        2.5845162501       20.9632023295
  N        10.0842791029        8.8549279339       17.7494604597
  C        10.3821928121        8.3685317628       15.5200074062
  C        10.7070004950        6.1115234143       14.6283608548
  H        10.2371386803        4.5151504748       15.8904673954
  H         1.4199259641        6.6382922998       30.6411621085
  H         0.8923691936        4.7750052631       30.5971473118
  H         2.4844217179        5.3666350098       31.2043903593
  S         4.2372294277        1.8193405350       34.3497318989
  C         4.6704679042       -0.7538157793       34.9280765211
  H         3.7714140909        3.0084185892       19.6837175394
  H         3.9357128834        2.5722899901       17.9697865526
  C         2.8912182348        1.1632396831       19.1423828677
  H        13.7263981500        3.4625712005       20.3171182204
  H        14.6665074683        2.0201705503       20.3765797892
  C        14.5493614535        3.1617800057       22.2215749527
  S        10.1068301977       10.3006513481       17.0199775732
  N        10.2726588666        9.7945489735       15.4917228509
  C        10.6642590705        7.5767214511       14.3596874008
  H        11.0736305928        5.4408278885       13.7774220874
  C         4.1430161908        1.1915143464       36.0742897238
  N         4.4118183539       -0.1483278831       36.1358750158
  O         4.8410828120       -1.9401488454       34.7898297055
  H         1.9209651588        1.5354589765       19.1162258676
  H         2.9559704932        0.4957840810       19.9449188811
  C         2.9775400508        0.2452972136       17.8410681222
  H        15.3025610595        3.9309360415       21.9498089729
  H        13.7814454285        3.6779172029       22.7993612926
  C        15.1695807159        2.0849988407       23.0446244731
  C        11.0016551208        8.2180450579       13.1594425011
  S         3.8040586458        2.2087818597       37.4457993208
  C         4.6158399966       -0.8766394029       37.3888542276
  H         2.6704143169        0.8726597353       16.9979820497
  H         4.0092231404       -0.0982417580       17.6658002224
  C         2.1493490128       -1.0617800679       17.8716905828
  H        15.0187632130        1.1676846468       22.5969418747
  H        14.6561037981        2.0069933401       24.0199674526
  C        16.6258536843        2.4159701721       23.4939406433
  H        10.7118306711        9.2617204463       13.1128353766
  C        11.6876194680        7.7740238500       12.0402842130
  H         3.8175573613       -0.5055039532       38.0514145030
  H         4.5066852717       -1.9390864758       37.1481832650
  C         6.0623555727       -0.5846414006       37.8982604725
  H         1.2312261709       -0.7865811144       18.4747386185
  H         2.6301505273       -1.8138425372       18.4679122224
  C         1.8293921811       -1.4596711722       16.4455732908
  H        16.5127289321        3.2917776343       24.1436433623
  H        16.8590946933        1.5461334202       24.1347664034
  C        17.5338937270        2.6196523915       22.2989628369
  S        12.5006460903        6.3110042390       11.9090959748
  C        11.7169745749        8.5758046818       10.8504681969
  H         6.2543682105       -1.0914626138       38.7976152544
  H         6.7943360749       -0.9181453398       37.1908976784
  H         6.1813602158        0.4994440329       38.1181181368
  H         1.9260406525       -0.7097083048       15.6507279626
  H         0.8436264232       -1.7793637859       16.4634135878
  H         2.3346779432       -2.3895985895       16.1670674012
  H        18.5614751874        2.5917402890       22.6238568284
  H        17.4545550571        3.6059500035       21.9295651596
  H        17.3693129473        1.7827858542       21.5949348804
  C        12.7367213619        6.7030895076       10.2194869627
  N        12.1560650352        7.8861722346        9.8503330722
  O        11.4015443922        9.7394933449       10.8972868655
  S        13.6744726763        5.7159497128        9.1036868841
  C        12.4999478382        8.4706184847        8.5669687235
  H        13.4668710728        8.9500874966        8.6363135666
  H        12.6875652560        7.6780353674        7.7790560919
  C        11.3334986242        9.3255748169        7.9872911232
  H        11.2095329617       10.4006512418        8.2440629967
  H        11.4117475351        9.4276457860        6.9279970735
  H        10.3315185319        8.9302318655        8.3417753589
  H        -3.4679393691       14.8234979403       16.2643452286
  C        -3.1374035218       13.7542338958       16.3155733077
  H        -4.0805815311       13.3845464369       16.6229018561
  C        -2.0482897546       13.6162525941       17.3657732728
  C        -2.5265639761       13.4491520642       14.9246351505
  C        -2.5292403271       14.0184943138       18.7261060860
  H        -1.6730013995       12.6268715557       17.2862007241
  H        -1.1730951859       14.2491439696       17.1551696103
  H        -3.2919859735       13.7893917604       14.2270479731
  H        -1.6248180335       14.0156183993       14.6944241369
  H        -2.5375815914       12.4016302107       14.6113648849
  C        -1.4401243457       13.9406297506       19.8416852258
  H        -3.4427839790       13.3741322031       18.8780266012
  H        -2.9936180186       15.0110054026       18.6072616121
  C        -2.0988437570       13.7557833355       21.2079036331
  H        -0.7073268573       13.1472742718       19.6886539645
  H        -0.8637919614       14.9248927879       19.7333816946
  C        -1.0922128055       13.1168221437       22.2320825904
  H        -2.8410680402       13.0392608560       21.1966366108
  H        -2.6834218188       14.6736703811       21.4045071022
  C         0.0553256153       14.0315770361       22.7066501305
  H        -1.6095378053       12.6945064338       23.0764952823
  H        -0.7698661920       12.1808647797       21.6072224087
  C         1.2022682152       13.2025745288       23.3482169271
  H         0.3569255009       14.6792852104       21.9473725883
  H        -0.2638171374       14.7939853644       23.4643158220
  C         1.5599688069       11.8284103628       22.6415247563
  C         0.5963315024       12.4218693251       24.5123700579
  C         2.4603341670       14.0216604841       23.6744059607
  C         1.2232413613       10.7074959021       23.3916979721
  C         2.2993004318       11.5342481602       21.5067167435
  C         0.5677691856       11.0730567115       24.5826426898
  C         0.0984962608       13.0484558589       25.6032969326
  H         2.5311683311       14.6075161718       22.7898859398
  H         2.1838358674       14.7774191413       24.4057013990
  C         3.6370017774       13.2362994687       24.0567496663
  S         1.5600214411        9.3009792042       22.5574642578
  C         2.3554303711       10.1920124592       21.2999023914
  H         2.6560770774       12.3369405827       20.8469448732
  C         0.0016141404       10.4228938276       25.6990474019
  H         0.0385262393       14.1165722952       25.6878975743
  C        -0.3322944760       12.4683981112       26.7552831401
  H         3.9071245567       12.5259816469       23.3034451413
  H         3.4756408402       12.7105416100       25.0054457608
  C         4.7990048801       14.1492750636       24.2580013122
  C         2.8535454838        9.5966511291       19.9842443129
  C        -0.4263069925       11.1418685881       26.8272657685
  H        -0.1025185804        9.3602834190       25.7453589144
  C        -0.7834332569       12.9165527283       27.9666233928
  H         5.4976912972       13.6203407711       24.8613929077
  H         4.4946582483       14.9726341749       24.9142164982
  C         5.4975835476       14.6951580709       23.0396121834
  C         2.8392392268        8.2157601857       19.6109024732
  C         3.2042189286       10.5696944927       18.9016439972
  C        -1.0087960519       10.4380904136       28.0749026331
  C        -1.2338672478       11.8655224460       28.7324399209
  S        -1.0563380498       14.4261340114       28.7195777369
  H         6.4536769067       15.1550179738       23.3644472776
  H         4.8141395928       15.3092144777       22.5262830991
  C         5.7627124335       13.5506590205       22.0414192201
  N         2.6265957105        7.0739571019       20.4574590704
  C         3.0055679286        7.8612221618       18.2894415976
  C         3.4728044205       10.1522392958       17.6151805454
  H         3.1689981684       11.6129260795       19.0526256162
  C         0.0809758868        9.5079005061       28.7728086216
  C        -2.3806753213        9.7376672376       27.8051483810
  C        -1.6260867043       12.2611389845       30.0009666785
  C        -1.5220037296       13.5934616461       30.1407912932
  H         6.1980378502       12.8191987944       22.6404139046
  H         4.8509738304       13.2399357676       21.5982648369
  C         6.7043605554       13.7617633558       20.8567044745
  S         2.4326777137        5.7757640050       19.5053296718
  N         2.6195721438        6.5649247970       18.0931794449
  C         3.4106192937        8.7346983457       17.2347840083
  H         3.7098695572       10.8628078717       16.8122590763
  H         0.3212053794        8.7298444512       28.1380794390
  H        -0.2642266401        9.0302878226       29.6811989164
  C         1.4168917478       10.2577428980       29.0579042339
  H        -2.1348949354        9.0062687184       27.0523289787
  H        -2.8522214797        9.2616797268       28.6866580221
  C        -3.4536009293       10.7012548222       27.3008316495
  H        -2.1162365552       11.5752720722       30.7131992027
  C        -1.7452485898       14.2906512058       31.4394759372
  H         7.6111950982       13.2595949256       21.1647716996
  H         6.9798294902       14.7781323775       20.8562918773
  C         6.1558942777       13.2672761252       19.5147049674
  C         3.4903508902        8.1326860576       15.9493670071
  H         1.6893959964       10.7450628539       28.1328236284
  H         1.1415194025       11.0946657363       29.6062288984
  C         2.5055870013        9.3627435196       29.6031858793
  H        -3.0013274716       11.2605063009       26.4970667630
  H        -3.6155146730       11.4273089908       28.1333706659
  C        -4.7296203646        9.9548822516       26.8678297738
  C        -1.7135999148       15.6631097139       31.6513952392
  C        -1.9397407840       13.4863299717       32.6865120235
  H         6.2349318721       12.2131045813       19.5392614113
  H         5.0514184252       13.4808469051       19.4051126818
  C         6.8673757251       13.8317246110       18.2249185630
  H         3.6245454915        7.0874592319       15.9010069693
  C         3.7373880875        8.5968780262       14.6597467002
  H         3.0086244487        8.7485755722       28.8924241379
  H         2.1221059952        8.5640471608       30.3356632631
  C         3.5559780527       10.1973794837       30.3879675870
  H        -4.5578793039        9.2643703042       26.0221746969
  H        -5.0544666541        9.3072645588       27.6646105802
  C        -5.8648846128       10.8776487947       26.4880348975
  N        -1.4203159574       16.6151564671       30.6672420629
  C        -1.9613882724       16.2555836786       32.8563640571
  C        -2.1450884184       14.1466890864       33.9085501977
  H        -1.8898946825       12.4595096978       32.7520281675
  H         7.9697741841       13.7340890851       18.2141563757
  H         6.4688483126       13.1730103851       17.3809662275
  H         6.5278404913       14.8313417652       17.8931159101
  S         4.0596978141       10.1758376269       14.1449677819
  C         3.6702976664        7.5603037836       13.5572825592
  H         3.6146923488       11.1274541395       29.8437198747
  H         3.2533999925       10.3760497812       31.4238032875
  C         4.8732434932        9.4148618878       30.5779160109
  H        -6.1804330509       10.8698352404       25.4680646335
  H        -5.6606654249       11.9782321643       26.6122884473
  C        -6.9976294181       10.4716512873       27.4430379872
  S        -1.7222893311       18.0718734331       31.2344375260
  N        -2.0202489537       17.6748111393       32.7703785618
  C        -2.1564774912       15.6015556461       34.0617305690
  H        -2.0644293210       13.5198249934       34.7755512016
  C         4.1765108637        9.4922817277       12.5669719865
  N         4.0934935765        8.1064104759       12.4246192226
  O         3.4799008136        6.3412754044       13.7892616172
  H         5.5995264581       10.1941267837       31.0137504312
  H         5.2743019523        9.0592392863       29.6480808493
  C         4.7262200254        8.2164497081       31.4084226570
  H        -7.1903427717        9.4129688016       27.2511141286
  H        -6.6708114200       10.5543273822       28.5104896808
  C        -8.2922525365       11.1693388689       27.0620058794
  C        -2.4263074332       16.3417357356       35.2432393664
  S         4.7028473603       10.2974797381       11.1069188410
  C         4.2123068921        7.3270299761       11.1304930297
  H         4.8462401498        8.4616316682       32.4713365498
  H         3.7628561665        7.8329047453       31.1670913556
  C         5.7933167058        7.1148089691       30.8819573908
  H        -8.1344300373       12.1470595946       26.7362178608
  H        -8.8556910102       11.2386993020       27.9874626714
  C        -9.2310020211       10.2535228822       26.2445597349
  H        -2.1254607784       17.3921547401       35.2257210456
  C        -2.9873275692       15.9885216341       36.4309626595
  H         4.8487636645        7.7945190743       10.3729376045
  H         4.7134295287        6.3358387552       11.2228853385
  C         2.9185584078        7.1253938101       10.3239681371
  H         6.8006245304        7.4120395451       31.1425392608
  H         5.8211094438        7.0100358490       29.8509076872
  C         5.8837411530        5.7061557364       31.6104402794
  H        -9.4341346601        9.2736990396       26.7397408675
  H       -10.1361064950       10.7926751358       26.4488338955
  C        -8.8712077952       10.1691091249       24.7784044103
  S        -3.5860061271       14.4617867154       36.9347182493
  C        -3.1700263707       17.1073230336       37.4443642106
  H         3.0036708945        7.3070621095        9.2688290817
  H         2.6321227333        6.0630961657       10.3413116192
  H         2.1312492443        7.7852684720       10.6314033299
  H         6.2968222592        4.9681602746       30.9545270907
  H         4.9022423907        5.3919082573       31.8006566748
  H         6.2894697854        5.7532912896       32.5952266823
  H        -7.9705296017        9.5969833781       24.6539884151
  H        -8.7168357389       11.1691873164       24.3642706269
  H        -9.5975221928        9.6365428002       24.2506496457
  C        -3.9770976667       15.2850125085       38.5276732535
  N        -3.8022085082       16.6245171075       38.5501456242
  O        -2.8151939385       18.2686920939       37.1863997970
  S        -4.6790174149       14.4998675783       39.8872909247
  C        -4.0424832281       17.4689832913       39.7344329983
  H        -4.2313510711       18.4925235608       39.3660510025
  H        -5.0277264101       17.1165715444       40.1938255899
  C        -2.8063817761       17.5057171837       40.6245015123
  H        -2.0402098836       18.0166900620       40.0160039497
  H        -2.9688072780       18.1571061640       41.3836101810
  H        -2.4092508133       16.5553513233       40.9670235975
