352
 i =    10800, time =    10800.000, E =        24.4175857165
  H        12.0535289643        7.0733098208       32.0568074234
  C        11.7185289698        6.0445399643       31.9276996528
  H        12.5211250508        5.7104296931       31.2975834162
  C        10.3267935368        5.8135751656       31.2853296041
  C        11.7860701460        5.4066770913       33.2676685976
  C        10.2201140983        6.1885135912       29.7887441739
  H         9.9688651992        4.8365186960       31.4229499428
  H         9.6173621920        6.4724637152       31.7968341620
  H        11.6029214492        6.1419010052       34.0011671888
  H        10.9514267865        4.7375454234       33.2959392029
  H        12.5685134536        4.6626472900       33.4533148966
  C        10.3302459251        5.0057720782       28.8492910359
  H        10.9291944684        7.0102293083       29.5581563414
  H         9.2280482496        6.6017329739       29.6261676030
  C        10.8028935132        5.4163219299       27.4794955586
  H        10.9944605949        4.2272780732       29.2027867275
  H         9.3837236496        4.4496044395       28.7835771054
  C         9.8688628091        4.8937604817       26.3916972913
  H        11.7426034024        4.8755356341       27.2553692328
  H        11.1424223997        6.4409892147       27.5058266843
  C         8.6910417142        5.8559351925       26.2502766779
  H        10.4064367063        4.7708947790       25.4468010003
  H         9.5952051109        3.8908831178       26.6188138667
  C         7.3587461715        5.2520190409       25.6097133796
  H         8.4296514632        6.4228786159       27.1479407749
  H         8.9543171432        6.6743875973       25.5564614967
  C         7.0343842256        3.9087950207       26.3237631836
  C         7.6972767421        4.5347025502       24.3596838495
  C         6.1828077566        6.2636127222       25.5504957913
  C         7.2408409359        2.7939323581       25.4773395819
  C         6.5788475673        3.5021630732       27.5901387060
  C         7.7354748244        3.2083433890       24.2635770728
  C         8.0063922078        5.1416995802       23.1433849066
  H         6.5813902733        7.0101098914       24.8415779168
  H         6.0377152978        6.8029912107       26.5472377150
  C         4.8276628596        5.6009436044       25.0995400504
  S         6.8588628559        1.2457127663       26.2116461742
  C         6.5112868803        2.1358976929       27.7347003822
  H         6.2767645348        4.2975576785       28.2633710969
  C         8.0830071711        2.4984949035       23.1308918451
  H         8.0946493021        6.2474538659       23.1365753786
  C         8.4079148391        4.4765341755       22.0039376824
  H         4.8388146639        5.2610157262       24.0264138473
  H         4.7426506460        4.6122818281       25.6741955828
  C         3.5712377901        6.4856722831       25.2319461421
  C         6.0113633887        1.5337785953       29.0380197217
  C         8.4406086054        3.1281306434       22.0096159612
  H         8.0164177560        1.4051095866       23.1052065575
  C         8.8867964566        4.7555446048       20.8083068594
  H         2.7218321334        5.9412237910       24.7088815903
  H         3.6673178943        7.4287765245       24.7897117477
  C         2.9963581215        6.5622758377       26.6609244185
  C         5.9399225790        0.1408375633       29.3651714551
  C         5.6180923006        2.4284800655       30.1888600906
  C         8.8489268418        2.4044767206       20.7471903806
  C         9.1086852127        3.6764635627       19.9831483369
  S         9.1701190400        6.3583688202       20.0750525190
  H         2.0949665692        7.1943898295       26.6105978341
  H         3.5333864050        7.0601120726       27.4071348232
  C         2.4527839850        5.1650762519       27.1382017410
  N         6.1654684254       -0.9488076755       28.5208748240
  C         5.7223174865       -0.3716231263       30.5985496482
  C         5.2483552858        1.8471666568       31.4219532567
  H         5.6457949338        3.4587712307       30.0466967692
  C         7.6818631073        1.6690400683       20.1462513321
  C        10.1625893443        1.6507908746       21.0046821546
  C         9.5116349405        4.1578369097       18.7289624356
  C         9.6863522871        5.5241188674       18.6028406320
  H         1.8266165259        4.7396281118       26.3231364683
  H         3.2183089525        4.4818155269       27.4791171229
  C         1.5033807398        5.2753433990       28.3232896688
  S         6.1495866472       -2.3376006055       29.3273922075
  N         5.7709367975       -1.7648589515       30.7347624147
  C         5.3441651078        0.4230828141       31.7016834737
  H         4.9285442354        2.5154329700       32.2560242187
  H         7.5891998128        0.7426882666       20.6961764861
  H         7.8850231966        1.4419971448       19.0810790374
  C         6.3016756849        2.3082203617       20.2359675269
  H        10.2059064627        0.7853445176       20.3656621071
  H        10.2056365987        1.1082767611       21.9476618451
  C        11.5134464959        2.4314536154       21.0719117294
  H         9.6641112713        3.4275102471       17.9902416176
  C         9.9822009240        6.3048084758       17.3325330372
  H         0.9520474636        4.3051683014       28.2022276505
  H         0.7705493233        6.1566282345       28.1247517242
  C         2.2834826480        5.3762600986       29.5650246157
  C         5.0573493619       -0.1891553360       32.9580983781
  H         6.3372266612        3.3945317313       20.3062192008
  H         5.8108314411        1.9270627983       21.1231289931
  C         5.3973196970        2.1262209396       18.9810153572
  H        11.4858198378        3.2248855823       21.7774391560
  H        11.7758340076        2.9284380777       20.0676100670
  C        12.7689977931        1.6374645532       21.3309224427
  C        10.1299672478        7.7055927547       17.2014197159
  C        10.1542103913        5.5562347934       16.0250532390
  H         3.0978472288        4.5821381090       29.5728079727
  H         2.6631236238        6.3045287247       29.6695443494
  C         1.2137854351        5.0895752630       30.6420503080
  H         5.0998048056       -1.2023432425       33.0071589302
  C         4.6405691504        0.2080841900       34.1892774005
  H         5.5037926792        1.0541286955       18.6436808392
  H         5.7928246413        2.7085890634       18.1089192545
  C         3.9350199986        2.2894694509       19.1494551114
  H        12.5270445873        1.0609371101       22.2182662327
  H        12.7818248467        0.9115359992       20.4802516254
  C        14.1152810410        2.4407186937       21.4474262266
  N         9.9117459014        8.6536061207       18.2150892578
  C        10.4974738683        8.3287474385       16.0056185269
  C        10.3682853070        6.1587456823       14.7866048341
  H         9.7997278329        4.5724434660       15.9749871441
  H         0.7817251689        6.0317843930       30.8398332107
  H         0.5172944952        4.3627680204       30.2520988448
  H         1.7825750821        4.6916295118       31.4803121752
  S         4.4155347340        1.7698105662       34.7400440759
  C         4.5063501778       -0.7960776575       35.2785795331
  H         3.5150390326        1.6712515541       19.9498655846
  H         3.8902707221        3.3317202301       19.5853297234
  C         3.0926877370        2.1043301638       17.8266762146
  H        13.8707499881        3.4192117741       21.0693925461
  H        14.8784242623        1.9264616692       20.8556250510
  C        14.5481415310        2.6395046045       22.9556145091
  S        10.1505439522       10.1177465923       17.6082317585
  N        10.5407488044        9.7031800768       16.0974080263
  C        10.6171445380        7.6465009588       14.7824010607
  H        10.4021832944        5.6228028259       13.8625431193
  C         4.0123950675        1.0689263498       36.3371179203
  N         4.1400524532       -0.2110920550       36.4182517978
  O         4.6139469247       -1.9916836014       35.1098881761
  H         3.3025365023        2.7820839515       17.0096508417
  H         2.0563821357        2.2340329986       17.9595268933
  C         3.0472936511        0.6161378699       17.3018930984
  H        15.0970705872        3.5677642976       23.0438488285
  H        13.6157756778        2.7683810445       23.5814975706
  C        15.3021260643        1.4106043834       23.4548430351
  C        10.8869238075        8.4365917343       13.5555417157
  S         3.3756869279        1.9535406166       37.6898110991
  C         4.0717652693       -1.0028271666       37.6137673875
  H         2.4260695927        0.5822027277       16.4190053676
  H         3.9815511570        0.3639135366       16.8035889320
  C         2.8624896950       -0.3886753005       18.4625633442
  H        15.5754353200        0.8132919055       22.6512901207
  H        14.6078921080        0.8187714785       24.0165495137
  C        16.5843618635        1.6390554312       24.1129860252
  H        10.6362990360        9.4514339668       13.6240306397
  C        11.4772437246        8.1647050446       12.3785034459
  H         3.4653934561       -0.5520573495       38.3987795785
  H         3.7632319563       -2.0234626068       37.3851881386
  C         5.4825187482       -1.1943988040       38.1986821899
  H         3.5895204463       -0.3348684753       19.2706451075
  H         2.9227610249       -1.3775294946       17.9985496579
  C         1.4474478922       -0.4337356133       19.0391984240
  H        16.4281762601        2.3800455541       24.9290770063
  H        16.8107183765        0.6302255160       24.4903964793
  C        17.6101236509        2.1234560353       23.0585632991
  S        12.3118825381        6.7562207950       11.8718775953
  C        11.4094133169        9.2311600638       11.3741780076
  H         5.8520320669       -0.1842514259       38.2829925650
  H         5.3363558385       -1.5762200931       39.2180366511
  H         6.1889685776       -1.8260043860       37.7032332690
  H         1.4938251475       -0.9887958800       19.9611083403
  H         0.8917253536       -1.0495975966       18.3082239863
  H         1.0511608038        0.5978496433       19.2224346297
  H        18.6248964888        1.8755830337       23.4205634981
  H        17.5433277057        3.2041964320       22.9596228929
  H        17.5750774806        1.8023949341       22.0677251579
  C        12.3206539916        7.4811819367       10.2307879326
  N        11.8825580876        8.7776724713       10.1906716948
  O        10.9807947728       10.3772657117       11.5195554424
  S        13.0179566613        6.7543850154        8.7575143480
  C        11.8615797210        9.6703856193        8.9808422811
  H        12.1233838455       10.6924087157        9.3079928143
  H        12.5635413428        9.3723057061        8.3686650623
  C        10.4005993506        9.7903413129        8.4340356245
  H        10.0356658686        8.9471092934        7.8808863990
  H         9.6754468840       10.0253241520        9.2530601552
  H        10.3601673653       10.5782532014        7.7057941682
  H        -3.9278759141       14.7415064052       16.4150246098
  C        -3.4149670746       13.8320388241       16.6288607202
  H        -4.2263254110       13.1424408146       16.9654639767
  C        -2.4293290832       14.0918614322       17.8214572917
  C        -2.6946172409       13.2266177381       15.4580981424
  C        -3.0608694357       13.7204005903       19.1658313101
  H        -1.5743613132       13.4117393271       17.6908286169
  H        -2.0120019248       15.0810953007       17.8136461387
  H        -3.3845913491       13.0962251241       14.5855833482
  H        -1.8313572822       13.9048041421       15.1914643100
  H        -2.2681149990       12.3105615450       15.7768058923
  C        -1.9941501197       13.7673623418       20.2392030819
  H        -3.3302863393       12.6542328930       19.1627299715
  H        -3.9156059389       14.4362734121       19.3120969193
  C        -2.5570622704       13.3746371205       21.5834474105
  H        -1.2426641496       12.9739144056       19.9740563711
  H        -1.6359871065       14.7894795353       20.2655243131
  C        -1.4760987761       12.7628979732       22.3808940142
  H        -3.4391791751       12.6874089922       21.5615833871
  H        -2.8347658771       14.3229183382       22.0905941272
  C        -0.2857055515       13.7373497770       22.7382562390
  H        -1.9584396672       12.4475008011       23.3300809116
  H        -1.0381046420       11.9319646078       21.8255379849
  C         0.9875373777       13.0836640023       23.4188980929
  H         0.0901325616       14.0017340734       21.7845243795
  H        -0.6047989641       14.6244102671       23.3230908608
  C         1.4443604714       11.7581795867       22.7502619752
  C         0.6119265471       12.3266808570       24.6814218693
  C         2.1988184974       14.0608493016       23.4472885972
  C         1.1878539798       10.6502432290       23.5461835273
  C         1.9161576783       11.3871341613       21.5047893008
  C         0.6828815208       10.9929309769       24.7554602132
  C         0.1658901278       12.9463466647       25.8268897544
  H         2.3098656847       14.4662703554       22.3935764535
  H         1.8078577618       14.8023353440       24.1430218781
  C         3.4949956407       13.3865739605       23.9062202537
  S         1.5322069171        9.1703828561       22.7583456309
  C         2.0332916779       10.0226175875       21.4467801579
  H         2.1174092272       12.1209488507       20.7737927134
  C         0.2886002842       10.2924698648       25.8290906504
  H        -0.0034417350       14.0573393410       25.8310051720
  C        -0.2620234424       12.2720293811       26.9501018329
  H         3.8532023187       12.4305264980       23.5171359028
  H         3.1770505222       12.9651332794       24.8786466766
  C         4.7538521312       14.2799094098       23.9653868733
  C         2.5035661193        9.2415137868       20.2210773091
  C        -0.2018746454       10.8873526899       27.0166157894
  H         0.4096879517        9.2325946977       25.7359617341
  C        -0.5572796135       12.6460065291       28.1963329005
  H         5.4038262351       13.9141834924       24.7806495206
  H         4.2825953110       15.1713448380       24.2976493664
  C         5.4961171196       14.5074449982       22.6613928981
  C         2.4880992139        7.8470965869       20.0363349616
  C         2.8361800478       10.0256205524       18.9726259091
  C        -0.5197589362       10.2200698474       28.2682093988
  C        -0.6331799405       11.5257761441       29.0105563094
  S        -0.9290822913       14.1176358896       28.9466774986
  H         6.2256795270       15.3064066638       22.8208766647
  H         4.7484705136       14.7885917343       21.8838838114
  C         6.0945565452       13.2682634662       22.1442785605
  N         2.1506105599        6.8754379907       21.0315178675
  C         2.7657080144        7.2141444180       18.8209125477
  C         3.1808688955        9.4082540816       17.7870402714
  H         2.6664668092       11.1342929416       18.9992110359
  C         0.6637412167        9.4032371251       28.9724976096
  C        -1.8668976642        9.4253768009       28.2293197085
  C        -1.0324734653       11.8940234816       30.3020835246
  C        -1.1159469692       13.2512822663       30.4195973005
  H         6.5602842421       12.7349325066       23.0337996286
  H         5.2521159572       12.7647006598       21.7769909375
  C         7.0246513704       13.3535319774       20.9127265493
  S         2.1516370730        5.3688719748       20.4051758789
  N         2.5354861323        5.8481463600       18.8784457967
  C         3.0744404320        7.9119478290       17.6450372449
  H         3.4211505755       10.0192355052       16.9608263713
  H         0.8138362098        8.5331277901       28.2998928486
  H         0.3332500962        9.0875075255       29.9854761429
  C         1.9853712393       10.0924741849       29.2232913540
  H        -1.8169604084        8.6952943073       27.4750003779
  H        -2.1920108427        8.9752901082       29.1954279856
  C        -3.0185700604       10.3729214877       27.7580085273
  H        -1.1412580228       11.1158476774       31.0292799029
  C        -1.3627557175       14.0288190427       31.7240242123
  H         7.5269015195       12.4534424399       20.5647138989
  H         7.8932956203       13.8986465305       21.2306198760
  C         6.2742257358       13.9954990992       19.7497820098
  C         3.2146849275        7.1791093984       16.4347964900
  H         2.4976263222       10.4722760411       28.3241047297
  H         1.8197560923       10.9890238917       29.8117490585
  C         2.9391404285        9.2208573606       30.0388933188
  H        -2.8164328625       10.9580598707       26.9334536666
  H        -3.2047052678       11.0677679073       28.5387945466
  C        -4.2769666964        9.6339941897       27.4655991560
  C        -1.3840047773       15.4316875582       31.8813211152
  C        -1.6602662418       13.2423597573       32.9368457747
  H         5.3384798772       13.4034709980       19.6013378903
  H         5.9025094672       14.9979094754       19.9516448260
  C         7.0977259414       14.0446411457       18.4921131383
  H         3.0096615990        6.1362295346       16.3597081630
  C         3.5907477578        7.5166662367       15.1797954519
  H         3.4015191014        8.4449886392       29.4116249415
  H         2.4089912714        8.6442361609       30.8087841601
  C         3.9466809953       10.1032213473       30.8792299039
  H        -4.0403698200        9.0652980951       26.6091053065
  H        -4.3009466746        8.9403956126       28.3863838461
  C        -5.4656559262       10.5309200006       27.1853066202
  N        -1.2419061882       16.4303778467       30.8842678732
  C        -1.8258708472       16.0226911149       33.0804942705
  C        -2.0778657057       13.8432993429       34.1678120198
  H        -1.8363939359       12.1500126486       32.8689223665
  H         7.7241273023       13.1735468834       18.3150795894
  H         6.4500683610       14.3339081933       17.6563481150
  H         7.9153561631       14.7260021695       18.5663840127
  S         3.9577189732        9.0629612229       14.5869984866
  C         3.5705333676        6.4023007004       14.1902494534
  H         4.1471791359       11.0585471723       30.3983083538
  H         3.6176908223       10.3003405910       32.0172707798
  C         5.2865914040        9.3336606719       30.9772894892
  H        -5.0884793500       11.3788110838       26.5234535467
  H        -5.9281584143       10.9606569681       28.0743373609
  C        -6.5235114174        9.7462543171       26.4212498093
  S        -1.4022449616       17.9089577860       31.4912106256
  N        -1.9817317077       17.4334559285       32.9821201998
  C        -2.2218593196       15.3369073179       34.2249615723
  H        -2.2551136766       13.2113009040       34.9957887494
  C         3.9509831876        8.3583643031       13.0241501503
  N         3.8450620126        7.0266998684       12.9878626263
  O         3.3146524110        5.2281096523       14.4280343505
  H         5.9567710854        9.9565658739       31.4758667568
  H         5.7367726856        9.2022698381       30.0351070985
  C         5.2780065242        7.9771273114       31.6586763163
  H        -6.2095571162        9.5835694429       25.3386375428
  H        -6.6531196452        8.7142496603       26.8238488604
  C        -7.8228931055       10.5647794226       26.5120979694
  C        -2.5912146240       16.0856926093       35.3756238417
  S         4.2677351056        9.2740563160       11.5455016341
  C         3.8442707247        6.1797788826       11.7979550508
  H         5.4291560497        8.0544688274       32.7194058595
  H         4.2399659996        7.6079318248       31.6947314636
  C         6.2386432439        7.0129350028       31.1037537831
  H        -7.7466364701       11.5021268735       25.9880940084
  H        -8.0733020616       10.9083072527       27.5643181474
  C        -8.9449086739        9.9090341709       25.7504073959
  H        -2.3474960699       17.1816458173       35.3635158217
  C        -3.1377521464       15.7256967761       36.6368443768
  H         4.5772405308        6.6242482755       11.0368080760
  H         4.3844001003        5.2458142170       11.9654814369
  C         2.4707995210        5.8750964509       11.2222722615
  H         7.2115864512        7.5054617756       31.2161690354
  H         6.3166675505        6.8860631079       30.0477002820
  C         6.0790221436        5.7068419222       31.8325361436
  H        -9.2941437228        8.9144729367       26.1325285994
  H        -9.7478998564       10.6376304020       25.8800152136
  C        -8.7264463430        9.7737088190       24.2387004625
  S        -3.5738085221       14.1845084742       37.2276791953
  C        -3.3049220253       16.7947147161       37.6508985761
  H         2.4103503708        5.0702277334       10.5195839055
  H         1.8008567786        5.5694594009       12.0588879896
  H         2.1692917517        6.7211477229       10.5978157416
  H         5.7808482142        5.9355622335       32.8267689733
  H         7.0530396455        5.2561840422       31.8332427927
  H         5.2781127750        5.0601192651       31.4470205203
  H        -9.5781084422       10.0359850296       23.5948370644
  H        -8.4586618954        8.7638567489       24.0496194302
  H        -7.8986875423       10.4197436598       24.0380172032
  C        -4.1848558376       14.9636822497       38.7232908782
  N        -3.9457884130       16.2857688889       38.7040016594
  O        -2.9215677993       17.9363704587       37.4811743706
  S        -5.0107051985       14.1509983503       40.0212933831
  C        -4.0025219560       17.0280814911       39.9249297064
  H        -4.2471128236       18.0245458859       39.5985718961
  H        -4.8160791669       16.8444702232       40.6437185849
  C        -2.7841626939       16.8795031447       40.8982773468
  H        -2.6402455678       15.9078449362       41.2995496442
  H        -1.8768321812       17.1473408770       40.4609186422
  H        -2.8836332584       17.4312422892       41.8243064419
