352
 i =    50500, time =    50500.000, E =        25.3685734178
  H         9.6300080952        6.9319327264       32.3150626363
  C        10.6638692319        6.6757364493       32.2500917478
  H        11.0851308236        7.6737579454       32.1135038718
  C        10.8843552560        5.7465496287       31.0132898734
  C        10.9752099115        6.1056102524       33.6300240482
  C        10.6530587115        6.4197906789       29.6656141256
  H        11.9434061130        5.4173581681       30.9308159352
  H        10.2609956054        4.8786640198       31.1489318149
  H        10.1620183631        6.2740808251       34.3234630922
  H        11.2509897694        5.0296610697       33.6408041823
  H        11.8577130052        6.6103179044       33.9445142995
  C        10.3168825154        5.3689983728       28.6337497559
  H        11.6224073630        6.8937989230       29.4690763114
  H         9.8711949904        7.2311304791       29.5498164874
  C        10.5405559522        5.7636845321       27.1624925313
  H        10.9128889152        4.5298938429       28.8113641977
  H         9.2678845414        5.1381702175       28.7337119997
  C         9.5079756943        5.0915328064       26.2114193588
  H        11.4695050283        5.6583300479       26.7789710569
  H        10.4944014142        6.8550906756       27.0449485921
  C         8.2277524440        5.9214258271       25.9042040260
  H         9.9746428866        4.9695559396       25.2184205866
  H         9.1743560172        4.1103700899       26.6326628509
  C         7.0010557450        5.2320818954       25.2829044585
  H         7.9642214587        6.4446433333       26.8452184695
  H         8.5970089024        6.7023846148       25.3138547721
  C         6.6377117083        3.8788392472       25.9565410254
  C         7.4554508911        4.5154453773       24.0568488921
  C         5.8322296009        6.2476823173       25.1078293666
  C         7.0899465897        2.7954182016       25.2232374635
  C         6.0388049432        3.4281311781       27.1918363273
  C         7.6335573389        3.1943203995       24.0436871524
  C         7.8969155992        5.2225684346       22.9663744678
  H         6.0743454855        7.0593886086       24.4090673215
  H         5.5988048589        6.7256313079       26.0856675021
  C         4.5739461431        5.4498750333       24.7334739007
  S         6.7740004931        1.2749438629       25.9339429871
  C         6.0402508341        2.0456098027       27.3262631133
  H         5.5920839134        4.1803993879       27.8703084481
  C         8.1912627341        2.6545892731       22.9049672987
  H         7.9349318253        6.2561719169       23.1441011935
  C         8.4758855906        4.7383658492       21.8280917990
  H         4.8631954734        4.9807799600       23.7135324044
  H         4.2529096244        4.6072767526       25.2818181234
  C         3.2204896760        6.1720042162       24.5799361816
  C         5.5734423115        1.3414498052       28.5662920458
  C         8.5608362518        3.3757754678       21.7679805691
  H         8.3122918779        1.5877689896       22.9655182700
  C         8.9196753343        5.0843476410       20.5744177977
  H         2.6129301577        5.4665362656       24.0146543858
  H         3.3413538967        7.1288263269       23.9806655885
  C         2.5458497630        6.3126977346       25.9280684721
  C         5.6917484214       -0.0235669239       28.9285899275
  C         5.0072369594        2.1803777057       29.6732774869
  C         9.0844874214        2.6892556500       20.5776885242
  C         9.2718926577        3.9936736771       19.7905271784
  S         9.0733067007        6.5843427945       19.7349580188
  H         2.0123232238        7.2370503117       25.7532445578
  H         3.2837802343        6.5451831777       26.6655648822
  C         1.7620498095        5.0853606400       26.3647025562
  N         6.1899724578       -0.9978371541       28.0682051769
  C         5.4279603646       -0.5362345652       30.2042809551
  C         4.7000420502        1.6904015005       30.9507563551
  H         4.8787786799        3.2503324488       29.5663298496
  C         8.0728918220        1.7898342919       19.9364018956
  C        10.4118805242        1.9109695372       20.8663611603
  C         9.5733734349        4.4117565047       18.4698564944
  C         9.7263314221        5.7482458794       18.3009784288
  H         1.0157595327        4.9450501609       25.5972185193
  H         2.4926668475        4.3060330207       26.5748411025
  C         1.0271678017        5.4083918391       27.7533207164
  S         6.3719724318       -2.4042847446       28.8027717399
  N         5.8660285869       -1.8850140740       30.2835588703
  C         4.9678166887        0.2679068920       31.2808201873
  H         4.2111810710        2.4077618462       31.6504490892
  H         7.7983152512        0.9775972438       20.6336758755
  H         8.5239996434        1.3717813226       19.0473147904
  C         6.7325203404        2.3251095564       19.3803075098
  H        10.6320385914        1.2924196151       20.0596925097
  H        10.3101836449        1.2167139333       21.6096356751
  C        11.6232406365        2.7539320914       21.1617917174
  H         9.8638208806        3.6950514035       17.7711544395
  C         9.9940993597        6.4595302667       17.0060533383
  H         0.2602219967        4.5996742343       27.9269725019
  H         0.5839748738        6.3983820130       27.5625252817
  C         1.9852015426        5.6222068393       28.9424316901
  C         4.7653275767       -0.3715488619       32.5826329046
  H         6.8718619981        3.2464942502       18.7480066266
  H         6.1594142006        2.6291360810       20.2500570390
  C         5.8546965753        1.3499879053       18.6776285343
  H        11.3499239961        3.3453084910       22.0226771630
  H        11.8867294115        3.3341058207       20.2823204254
  C        12.7649649935        1.8430440470       21.5646472142
  C        10.0263408590        7.8728084090       16.9094075877
  C        10.2713591161        5.6668700323       15.7588503502
  H         2.4762620281        4.6626143036       29.1792525780
  H         2.7805103209        6.4462914561       28.7662198697
  C         1.2798622522        5.8612548849       30.2637981399
  H         4.8793918147       -1.4266670071       32.5715326555
  C         4.5702815595        0.1956773999       33.7841796588
  H         5.4309095655        0.7022707927       19.3943797915
  H         6.4237044263        0.7473911738       18.0672555460
  C         4.7379971231        2.1228401766       17.8967363739
  H        12.6405064954        1.3571517694       22.5641861859
  H        12.8300446594        0.9996194184       20.8779403765
  C        14.0871171614        2.6065420021       21.3895774349
  N         9.7712233053        8.8190673605       17.9050245120
  C        10.4097564190        8.4555396501       15.7001591462
  C        10.6671407317        6.3531280155       14.5873718217
  H        10.2123538343        4.5592805988       15.8025924640
  H         0.8672574696        4.9756006487       30.7497058878
  H         2.0143527746        6.2532906142       30.9402837788
  H         0.5191020197        6.6629571781       30.2726261070
  S         4.1575856169        1.7934219222       34.1390634834
  C         4.5480447196       -0.7166413120       34.9322285956
  H         4.4867104672        3.1022867040       18.2971042891
  H         4.8922149664        2.2161582010       16.8338453986
  C         3.3821768466        1.3346544920       18.0476309810
  H        14.0733420675        3.2487136476       20.5545470311
  H        14.8315127053        1.8512905949       21.2241091014
  C        14.4015647049        3.5020096171       22.5313099202
  S         9.7870869279       10.2828520514       17.2635415150
  N        10.3946539496        9.8887382586       15.8135296146
  C        10.7114043511        7.7733560011       14.4997337511
  H        10.9009889005        5.8216249126       13.6369969669
  C         4.1660737114        1.2803060468       35.8311870995
  N         4.2944186397       -0.0351828903       36.0277833349
  O         4.5287941374       -1.9386395262       34.8227571488
  H         2.6847168083        1.8341303205       17.4126824172
  H         3.0384056837        1.4237814139       19.0865704823
  C         3.4293309481       -0.0613580593       17.5539773815
  H        14.7847461487        4.3637635883       22.1687868198
  H        13.4946473554        3.6126436658       23.0743576037
  C        15.4332483345        2.8644686885       23.4303149293
  C        11.0183654084        8.4725159657       13.3108131272
  S         3.8120934919        2.3916199276       37.2181041229
  C         4.1034715240       -0.6207259328       37.3972944423
  H         3.8557181708       -0.0305336865       16.5243510455
  H         4.0870187432       -0.6828262394       18.1192803928
  C         2.0862381586       -0.8517507532       17.7409035749
  H        15.3203035186        1.8214203904       23.4234545038
  H        15.1491426952        3.1833254357       24.4642299158
  C        16.9284365440        3.1826641614       23.2251062555
  H        10.6859249630        9.4328223377       13.4184467838
  C        11.4657991794        8.2572353824       12.0272666517
  H         3.7273529753        0.0829044295       38.1601393370
  H         3.4348737090       -1.3889207290       37.5485239659
  C         5.5521699735       -0.9277190799       37.8841636706
  H         2.0891355857       -1.7098720306       17.0218498870
  H         1.2967932392       -0.2022077850       17.4024261607
  C         1.6447700481       -1.3680522825       19.1058200328
  H        17.0701379656        4.1820514417       22.8732228025
  H        17.3916508726        3.0100760651       24.1955033567
  C        17.4393402935        2.3571686842       21.9946526180
  S        12.0559004926        6.7952500083       11.3730015201
  C        11.5536225069        9.4755149851       11.1918279341
  H         6.0487670816        0.0205223714       37.9915292918
  H         5.6153650338       -1.4186981448       38.8990447598
  H         6.0289897691       -1.5207413489       37.1018789062
  H         0.9717070068       -2.2707802154       18.8898592449
  H         0.9989630201       -0.7157170545       19.6502012942
  H         2.4964958186       -1.6795805769       19.7273753687
  H        17.3423402825        1.2900197892       22.0950957756
  H        18.4539181125        2.5912540774       21.8537186474
  H        16.9544642202        2.6745860208       21.0858965127
  C        12.5814062338        7.7829580957       10.0257200991
  N        12.1026765610        9.0735820183       10.0542264176
  O        11.3270273581       10.5945160396       11.5874576619
  S        13.3807917082        7.2750110658        8.4972794770
  C        12.3688718584        9.9245678576        8.9536563294
  H        12.4367086988       10.9435025863        9.2165290230
  H        13.4152896282        9.7969556472        8.5141643500
  C        11.2457866979        9.7972487488        7.9118666167
  H        11.3124353502        8.8312174315        7.4355550418
  H        10.2555944942        9.6807244612        8.3020276313
  H        11.3560879585       10.6191187048        7.1354575243
  H        -1.7287859137       12.8820054729       16.8165511581
  C        -1.7357667705       13.9230917564       16.5060945502
  H        -0.6872426688       14.2639687730       16.3250887444
  C        -2.3149401458       14.6721759741       17.6864666341
  C        -2.5123930986       14.0253402662       15.2019345165
  C        -3.3083237050       13.8451793918       18.4977467536
  H        -1.5626530435       14.9071262866       18.4462765609
  H        -2.6545306006       15.6580054991       17.3415568806
  H        -3.5018855937       14.4995390531       15.3888781097
  H        -1.9246176673       14.5475938225       14.4653974776
  H        -2.7515064321       12.9743566665       14.8029800779
  C        -2.7585588034       12.9245254467       19.6273390107
  H        -3.8790502982       13.2547524984       17.7857508549
  H        -3.9801771629       14.5557063670       19.0170710097
  C        -2.5220065802       13.6752278564       20.9421587813
  H        -3.4677009302       12.1322893591       19.7800565802
  H        -1.8691048365       12.4313458359       19.2957190385
  C        -1.6517969915       12.9907830781       21.9142189213
  H        -3.5107419837       13.7633739758       21.3871073574
  H        -2.2755118494       14.6732125149       20.8117243974
  C        -0.4615195819       13.8820656953       22.2653365808
  H        -2.2099334257       12.4555010170       22.6655308010
  H        -1.2094602823       12.1028061141       21.4074395972
  C         0.7065612190       13.1069772077       23.0557084996
  H         0.0020073753       14.3744027777       21.4353646858
  H        -0.9265139885       14.5900867916       22.9598178538
  C         1.0801976684       11.7528907139       22.3811771019
  C         0.3258480136       12.3890099610       24.3584717576
  C         1.8817051520       13.9270341042       23.3399053845
  C         0.8752479198       10.6508387697       23.2148287029
  C         1.6905882434       11.3637341069       21.1720455828
  C         0.4874685044       11.0387381941       24.4956853108
  C        -0.1101690915       13.0219850787       25.5104897410
  H         2.1376120475       14.3853422428       22.4382683393
  H         1.5831305025       14.7033196624       24.0330784046
  C         3.1068077218       13.1259783049       23.8967261377
  S         1.3671931709        9.1284672283       22.5086080553
  C         1.9583238152        9.9999431324       21.0836517165
  H         1.8248157633       12.1048536584       20.3986268367
  C         0.3434950203       10.3597058162       25.6471870538
  H        -0.2438503884       14.1379411558       25.4874767067
  C        -0.2940269571       12.3693017101       26.7151981482
  H         3.3781143792       12.1840599817       23.3434838275
  H         2.8547543476       12.6904469565       24.9258262757
  C         4.3223326269       14.0676860787       24.1333571497
  C         2.5098221554        9.3098194022       19.8362584831
  C        -0.1408151937       11.0054869963       26.8105410528
  H         0.5023806058        9.3258290707       25.4977815119
  C        -0.6719515749       12.7604715402       27.9535895710
  H         5.1008754866       13.5991923245       24.7337179622
  H         4.0456185114       15.0192840305       24.6184012747
  C         4.9960400742       14.2614665297       22.7451007461
  C         2.5393094047        7.9582615148       19.5631242455
  C         2.9177767917       10.2059175951       18.7021211272
  C        -0.5143700300       10.2620891353       28.0654187113
  C        -0.8019601982       11.6329215418       28.7523847613
  S        -1.1078659249       14.2499310572       28.7631273870
  H         5.5019756442       15.1448792220       22.7850377913
  H         4.1767118530       14.4682697459       22.0890641342
  C         5.9367200712       13.2191278789       22.1660553171
  N         2.2186222661        7.0112432023       20.5028927954
  C         2.8151994960        7.4398999299       18.3002829925
  C         3.2703884405        9.6833447496       17.4432117680
  H         3.0672986345       11.2706859515       18.8270162293
  C         0.8094977822        9.5027874142       28.5534809800
  C        -1.7273996428        9.2328151516       27.9348014833
  C        -1.1890812710       11.9611893757       30.0972112505
  C        -1.4709555476       13.2685081920       30.2604866058
  H         6.4770268294       12.7309644663       22.9669063856
  H         5.2250454273       12.5205046083       21.6795661664
  C         6.8068119331       13.7996721763       21.0304951390
  S         2.2998635481        5.5582604127       19.7326592628
  N         2.8043956045        6.0147500860       18.2518531219
  C         3.2356296057        8.2172452249       17.2223499529
  H         3.5892001459       10.2931824074       16.6779243518
  H         1.2561963533        8.8591866652       27.7717685482
  H         0.4660552810        8.7025351449       29.2354498429
  C         1.7974964612       10.4193092914       29.3500811172
  H        -1.4695836748        8.6198758422       27.0361241539
  H        -1.8513370598        8.6563277143       28.7885208236
  C        -3.0546663032        9.9439882735       27.6315176377
  H        -1.3991425866       11.1723577556       30.8869480466
  C        -1.8241968381       13.9968502510       31.5501950945
  H         7.8593134432       13.6591970243       21.2020720914
  H         6.5039125149       14.7823519646       20.9053899669
  C         6.5572175983       13.0109519842       19.7035608406
  C         3.3485111257        7.6463116704       15.8640821513
  H         2.2008625439       11.2096571845       28.7086313649
  H         1.1885960025       10.8567761168       30.1290913409
  C         2.8527447395        9.5700360367       30.1103619652
  H        -2.9043040341       10.4811139969       26.6977462406
  H        -3.2421449096       10.6001234410       28.5217535236
  C        -4.2208072587        8.9696890101       27.5983464429
  C        -1.9636015904       15.3941768489       31.7377776236
  C        -1.9815409581       13.1828625084       32.7667293583
  H         6.9170529325       11.9606726944       19.7559205064
  H         5.5584929771       12.9393638190       19.4994673804
  C         7.1369393021       13.5228061257       18.4190239706
  H         3.2591731884        6.5911741895       15.8822998471
  C         3.8380724105        8.1531199066       14.6638864069
  H         3.1399520709        8.6488178221       29.5504158964
  H         2.4264980358        9.1284906047       30.9806523509
  C         4.1069635453       10.3025114612       30.5121421735
  H        -3.8571297421        8.1620748016       26.8943765870
  H        -4.4448243622        8.5110297318       28.5265279406
  C        -5.5799023206        9.5385297173       27.2228525929
  N        -1.7447459737       16.3513585222       30.7306922404
  C        -2.2917687369       15.9518450743       32.9447962834
  C        -2.2265519466       13.7784176847       34.0124260205
  H        -1.5910046434       12.1906709325       32.7521964355
  H         7.7375670734       14.3494228337       18.5255766012
  H         7.7832267619       12.7381102670       18.0900715762
  H         6.3139853350       13.6391773046       17.7041615982
  S         3.9629944222        9.7703505367       14.2188356759
  C         3.9890501458        7.1701691829       13.5955922776
  H         4.0925352969       11.2957824926       30.1477981625
  H         4.0455188846       10.4265803190       31.5744738897
  C         5.4428501807        9.6652095001       30.1254081553
  H        -5.8545631520       10.3702452230       27.8802626317
  H        -6.3057303953        8.7394690628       27.4570853488
  C        -5.6354442950        9.9780787883       25.7296540161
  S        -1.6000433260       17.7749167337       31.4203747546
  N        -2.2961903168       17.3838920062       32.8160040188
  C        -2.5058551591       15.1999599544       34.0874991932
  H        -2.2815864179       13.2237420353       34.8834592278
  C         4.2109572542        9.1368583398       12.5750116736
  N         4.2912138166        7.7604362297       12.4223216501
  O         3.8563818724        5.9410687827       13.7307013126
  H         6.1327999505       10.4200256508       30.5918230421
  H         5.6674959788        9.6600012836       29.0437838764
  C         5.5600805627        8.2836034206       30.8327803284
  H        -4.9187436561       10.7677724280       25.5246895739
  H        -5.4620832803        9.0817080787       25.0840451318
  C        -7.0309857090       10.5931636297       25.4798710968
  C        -2.9060732302       15.9760189359       35.2589444369
  S         4.6743351038       10.1788473099       11.1570977018
  C         4.4082141496        6.9741247918       11.1714301731
  H         6.2176592763        8.3154251789       31.7391514896
  H         4.5653819105        7.9926710206       31.2469543129
  C         5.9952172799        7.1239209660       30.0289734346
  H        -7.0173007522       11.2058437291       24.5539797221
  H        -7.2192780711       11.3351169292       26.2670795897
  C        -8.2010016098        9.6190500195       25.4893089251
  H        -3.0748333832       16.9985167256       35.1338989003
  C        -3.1392649839       15.6941865513       36.5463155582
  H         5.2552555552        7.3179910545       10.5571286962
  H         4.7314906215        5.9497465141       11.4228886101
  C         3.0727672126        6.8906454426       10.4607099109
  H         6.8717671288        7.3782455414       29.3393790902
  H         5.1414659462        6.8197566876       29.4228134462
  C         6.1409908470        5.7802373648       30.8085697001
  H        -7.9839625674        9.0090842311       24.6437560355
  H        -8.2316757689        8.9280727830       26.3556645270
  C        -9.4754130584       10.3673150761       25.2271285961
  S        -3.3770711970       14.1647324724       37.1411450347
  C        -3.3222954651       16.8647926118       37.4859187927
  H         2.3007563554        6.4539550423       11.1328980748
  H         2.7043612703        7.8747731395       10.1730369020
  H         3.0688307439        6.3042468718        9.5625275425
  H         6.6271015056        5.9130449556       31.7056260067
  H         6.5526818257        5.0279655559       30.1880690008
  H         5.1418374447        5.4438036119       31.0859838345
  H        -9.6031600280       11.0052290117       24.3886998758
  H        -9.5514995726       10.9841286095       26.1452523054
  H       -10.2606915614        9.6246225117       25.2083435278
  C        -3.9087117247       14.9739453477       38.5662304673
  N        -3.8630330343       16.3249531449       38.5190393485
  O        -3.0030284538       17.9990800471       37.2885135068
  S        -4.2365741735       14.1983584250       40.1681743739
  C        -4.0979424058       17.0809032250       39.7209602245
  H        -4.2913770861       18.1114540983       39.2255244435
  H        -5.0216328422       16.8836302230       40.2883765637
  C        -2.8773947779       17.2800094988       40.5762027993
  H        -2.9150861045       18.2490143317       40.9053111463
  H        -2.9302790546       16.5586953614       41.3174832777
  H        -1.9296686479       17.1051917024       39.9912926351
