352
 i =    24200, time =    24200.000, E =        24.9401760720
  H        10.3554344624        7.0481618546       33.0158621084
  C        11.1169318534        6.5935978286       32.4830120601
  H        11.9285086263        7.3235347719       32.5243191372
  C        10.5126604059        6.4151818211       31.1441769837
  C        11.6058481444        5.2997137477       33.2217786511
  C        11.5343806208        5.8613603694       30.1013270916
  H         9.7264227229        5.6518800331       31.2611130311
  H        10.0543501032        7.3528277142       30.8063103418
  H        12.3802768125        4.8320626302       32.6256141600
  H        11.8269923595        5.5529663780       34.2536377320
  H        10.8089059935        4.6274880528       33.4453377019
  C        10.8398510173        4.9763986487       29.0186414209
  H        12.2796582290        5.2084826171       30.5247862026
  H        12.0651541084        6.7576819664       29.7255522265
  C        10.9283891319        5.4455479047       27.4513642605
  H        11.1856670598        3.9215527438       29.1322540908
  H         9.7290904342        5.0040830253       29.1856823901
  C         9.8458758959        4.8254334741       26.5830384365
  H        11.9077729143        5.1815957327       27.1340791800
  H        10.8787169603        6.6326167344       27.5427403974
  C         8.4790057639        5.6339541754       26.5219446992
  H        10.3369672691        4.7139190826       25.6454684787
  H         9.6921173590        3.7947218247       26.9926755932
  C         7.3370534661        4.9396632715       25.7229651372
  H         8.1741852026        5.8688563703       27.5403010273
  H         8.7157593303        6.6038719560       26.0238634720
  C         6.9447118860        3.5991414590       26.3684002458
  C         7.7810109402        4.2634620502       24.5125978727
  C         6.0701289305        5.9018425800       25.5009629191
  C         7.2211791640        2.5082728525       25.5598299181
  C         6.4206068221        3.2339782971       27.6041790176
  C         7.6688589963        2.9263747168       24.3313026814
  C         8.2888864813        4.9404684853       23.3192982806
  H         6.4844034355        6.7476408221       24.9433009114
  H         5.7713439821        6.3449596538       26.4734912022
  C         4.7600804866        5.3116354206       24.8635023514
  S         6.6430844514        1.0345562782       26.2182988580
  C         6.1932542526        1.8591600803       27.6833037422
  H         6.2475897997        3.9742542335       28.3450681750
  C         8.0378378726        2.3228164794       23.1633905631
  H         8.3554113764        6.0418273048       23.4239341948
  C         8.6083211847        4.3547585810       22.1577295006
  H         4.8556225522        5.3251951775       23.7749923892
  H         4.6669067406        4.3037141058       25.1804209342
  C         3.4363807970        5.9623001305       25.2991098415
  C         5.6693915855        1.0984015124       28.9085342070
  C         8.5322880072        2.9841178846       22.0846072555
  H         8.0672891511        1.2545885719       23.1664051023
  C         8.8792133260        4.7382816769       20.8955778181
  H         2.5696051063        5.5848497548       24.7340962071
  H         3.5145602718        6.9686659353       24.9072194180
  C         3.0399313636        6.0674922612       26.7672194434
  C         5.7858323437       -0.3080609437       29.2228660454
  C         5.1946310583        1.8929455860       30.0144318271
  C         8.8969856615        2.2832967892       20.7855681180
  C         9.0992013240        3.6757031413       20.0831699889
  S         9.2114935039        6.2397464793       20.2760380855
  H         2.1327411732        6.5628469852       26.5901168132
  H         3.6691683635        6.7867893465       27.1634272758
  C         3.0313279615        4.8670650990       27.7161331975
  N         6.0832113591       -1.2974650003       28.2915999421
  C         5.6685875095       -0.7452162736       30.5604201462
  C         4.9861541308        1.4833514497       31.3150121505
  H         5.0692528664        2.9155805769       29.7397795777
  C         7.7467527874        1.4717277475       20.1941151288
  C        10.1941091251        1.4533050310       20.8778664616
  C         9.4773535305        4.1282900180       18.7820249959
  C         9.4577361310        5.4974515813       18.7807512768
  H         3.2683474652        3.8366832619       27.3223941422
  H         3.8082224167        5.0085917205       28.4322621008
  C         1.6899217462        4.7488649514       28.5483806125
  S         6.2251449595       -2.7234269000       29.1139872711
  N         6.0062414686       -2.1285079804       30.6234356631
  C         5.2875255565        0.0271914829       31.5982862146
  H         4.6255979585        2.2131686149       32.0484079023
  H         7.4480311997        0.7927985281       21.0486287212
  H         8.1437011846        0.9830004460       19.3158199360
  C         6.5202519179        2.3283959800       19.6868367711
  H        10.2596260074        0.8366081372       19.9993160687
  H        10.0769796737        0.7679958860       21.6975796458
  C        11.4433074536        2.3482228807       21.1714366564
  H         9.6118638122        3.4620914028       17.9930742687
  C         9.8924763122        6.3107706093       17.5666378905
  H         1.4648520523        3.7355537354       28.6553038705
  H         0.8607942910        5.1005965250       27.9289230286
  C         1.7301416086        5.5633428660       29.8372543818
  C         5.1302206801       -0.5661151687       32.8698236926
  H         6.8752566519        3.0779522810       18.9517846079
  H         5.9763287429        2.8545451533       20.5295109957
  C         5.4467261559        1.5249912578       18.9735703423
  H        11.3949986856        2.8051118659       22.1346951845
  H        11.5706779093        3.1447381191       20.4153818005
  C        12.7446611668        1.4763993880       21.1528346078
  C        10.0105092809        7.6935253934       17.4277864235
  C        10.2056671882        5.5094054914       16.3430563832
  H         2.5984229089        6.3022459460       29.9073667403
  H         0.8462821248        6.2014357532       29.8640967224
  C         1.8443987405        4.7726248261       31.0947573506
  H         5.1436966673       -1.6405492675       32.8286270865
  C         4.8305188535       -0.0518570675       34.1459868995
  H         5.3347788819        0.4990396490       19.3371263419
  H         5.8071130642        1.4136165463       17.8892752647
  C         4.1083072564        2.2735154135       18.9288027497
  H        12.6938747816        0.7517024557       21.9865221845
  H        12.6012501970        0.9328676845       20.1419081769
  C        14.0181009341        2.3264241805       21.2629398511
  N         9.6986818693        8.6874988784       18.4186459796
  C        10.3545845732        8.2940386573       16.2257831483
  C        10.5259363315        6.1327224164       15.1428289132
  H        10.1058469255        4.4223751635       16.3841748335
  H         1.9223770916        5.6162955897       31.8113375205
  H         1.0263670132        4.1503147643       31.2645175885
  H         2.7453315074        4.0816930187       31.1928064609
  S         4.3358987635        1.5082648229       34.5895771090
  C         4.7976928107       -1.0622153287       35.2650521935
  H         3.9051483766        2.7154898598       19.8924223621
  H         4.1628247901        3.1351313876       18.2334801347
  C         2.9741764132        1.2768304929       18.6621925562
  H        13.8097938792        3.1981094088       20.6194178862
  H        14.8465557467        1.8382222414       20.7014496167
  C        14.4119968224        2.6216598751       22.7153200658
  S        10.1058208038       10.1417722055       17.8463107210
  N        10.4120911170        9.6796868916       16.3300268055
  C        10.6240600320        7.5880306738       15.0185697812
  H        10.7418052067        5.5193387116       14.2974177229
  C         4.1553104454        0.8268052812       36.1495818128
  N         4.2089500531       -0.5317119647       36.3579315845
  O         5.0998559173       -2.2612104401       35.0659587553
  H         1.9661734615        1.7776154472       18.8053703561
  H         3.0185590069        0.6581499693       19.4666767221
  C         3.1223772888        0.3635589371       17.4209746469
  H        15.0343857199        3.5670424878       22.6614992412
  H        13.5140250438        2.8827374542       23.2685632777
  C        15.1535470329        1.5534733841       23.4625836835
  C        10.8886877664        8.3702545013       13.8425421348
  S         3.5986913602        1.7564295451       37.4515040052
  C         4.0367334178       -1.2807583054       37.6002879668
  H         2.9381594283        0.9858368120       16.5371802613
  H         4.1501895262       -0.0517610508       17.3163540378
  C         2.2582770965       -0.8578572725       17.3140550508
  H        15.2321960550        0.6923891302       22.7530351362
  H        14.6965261996        1.3428176508       24.4006532027
  C        16.5490032044        2.0263407669       23.7317763000
  H        10.6147031388        9.3810527472       13.8717894945
  C        11.3076203413        8.0601640430       12.5412073645
  H         3.3969491590       -0.6769780757       38.2465964175
  H         3.6197171950       -2.2919621723       37.4319642923
  C         5.4803155300       -1.4156047811       38.1647657824
  H         2.4149015120       -1.3687853414       16.3578184715
  H         1.2460353582       -0.4846384964       17.1397862919
  C         2.4650591683       -1.8722624771       18.4215935849
  H        16.6135128874        3.0469478610       24.1242230651
  H        17.0360984953        1.3905814610       24.4583683357
  C        17.3968944768        2.1324942317       22.4612559798
  S        11.8723066799        6.5576057917       11.9165853359
  C        11.3835393515        9.1261922308       11.5575813648
  H         6.0249114299       -0.4864370838       37.8862010113
  H         5.2867395918       -1.3118872987       39.2092439290
  H         5.9956909887       -2.4061339193       38.0535725395
  H         3.2108846919       -2.6049626161       18.0197096081
  H         1.4749573934       -2.2732085888       18.6746605054
  H         2.8186189658       -1.4036482255       19.3781179633
  H        18.3057393635        1.7925652622       22.7635348427
  H        17.5263177634        3.1530499199       22.1649031271
  H        16.9958887598        1.6175795432       21.6265328484
  C        12.3367262706        7.4679470954       10.4307369918
  N        12.1020149957        8.7686604850       10.4748512954
  O        11.1290774995       10.2973078752       11.8663855515
  S        13.0208108118        6.7914252936        8.9637841662
  C        12.4479473858        9.6652699914        9.3571301458
  H        12.6583659850       10.5910604779        9.8441906050
  H        13.3562941164        9.4522109839        8.8414821116
  C        11.3715882149        9.8499325868        8.2759290784
  H        11.0992595042        9.0087007801        7.6444166218
  H        10.3997323133       10.1689314956        8.6617617716
  H        11.7996810795       10.6583611190        7.6018514512
  H        -3.1993667442       14.7070353429       16.2670158007
  C        -3.0221730264       13.6584058103       16.5563139853
  H        -3.9777198691       13.1333867382       16.7557898856
  C        -2.0514759996       13.6104657164       17.7376956595
  C        -2.4311197609       13.0167063066       15.2949026922
  C        -2.7690033082       13.4496704569       19.1362286881
  H        -1.4047786923       12.6979238191       17.5981574870
  H        -1.4061149436       14.5023287948       17.7394080910
  H        -1.5673019860       13.5642122773       14.9421702217
  H        -2.1633630572       11.9610842417       15.4039286068
  H        -3.1638611868       12.9776146648       14.5042222425
  C        -1.7498609241       13.1270565874       20.1701042443
  H        -3.4901763833       12.6499699335       19.1362723534
  H        -3.3919676956       14.3442025699       19.4210599428
  C        -2.2734963512       13.0816346314       21.5941131656
  H        -1.0906145156       12.2776151716       19.8552066490
  H        -1.1467927783       14.0631209421       20.1155686438
  C        -1.2736302890       12.5482862789       22.6125864754
  H        -3.0089941191       12.2753562829       21.4063746752
  H        -2.7555372331       13.9575120776       21.9546604936
  C        -0.0620180626       13.4808749965       22.8711518473
  H        -1.7154686292       12.1627869840       23.5735707094
  H        -0.8520995248       11.6409932189       22.1637884990
  C         1.1866870482       12.8061277135       23.4665087673
  H         0.1945258792       13.8342903599       21.8537425055
  H        -0.3484655755       14.2765379843       23.6366749580
  C         1.5529234959       11.4087401973       22.7553291805
  C         0.7679073534       12.0184731640       24.6598230452
  C         2.4780881614       13.6397825302       23.7889860448
  C         1.3187548704       10.2842099367       23.5592076714
  C         1.9312663933       11.1112964316       21.4459234107
  C         0.7758481587       10.6390281798       24.7752341996
  C         0.2329016981       12.6803312115       25.8403257425
  H         2.6938168639       14.2815042267       22.8913992336
  H         2.1429166066       14.4082396602       24.4170290088
  C         3.7236547441       13.0309833112       24.2770097169
  S         1.6619573393        8.8673455184       22.6774317858
  C         2.0978121505        9.7627372508       21.2685784408
  H         2.1476358453       11.8833136333       20.6933973695
  C         0.3425326686       10.0389089266       25.9298445078
  H         0.2115650163       13.7689393663       25.7948955453
  C        -0.2900497524       12.0540696083       26.9485239136
  H         3.7104521587       12.1436829495       23.6790989868
  H         3.6446954000       12.7696066276       25.3179828566
  C         5.0489983848       13.7681628221       24.0600823376
  C         2.5968575851        9.1141096523       19.9834573434
  C        -0.1804318454       10.7268515353       27.0317461946
  H         0.2248337944        9.0028361715       26.0340356822
  C        -0.8770170377       12.4781315745       28.1069340107
  H         5.8676409131       13.2940406447       24.5997403527
  H         4.7762020837       14.7345430720       24.5094593231
  C         5.4736226520       13.9637036487       22.6070288993
  C         2.7106472978        7.7139508533       19.7550389239
  C         3.0244860911        9.9333753718       18.7527758884
  C        -0.7025803909        9.9762380541       28.2054099889
  C        -1.1352685296       11.3852047558       28.8971899842
  S        -0.9603097126       13.9681843872       28.8884563415
  H         6.5047834438       14.2815000579       22.7522787914
  H         4.9370176193       14.8093004007       22.2209069919
  C         5.5622267258       12.7297259967       21.6856525111
  N         2.4265860797        6.7234908462       20.7187403376
  C         3.0188270429        7.1442431910       18.4926918919
  C         3.3669206163        9.3964275953       17.4915314096
  H         3.0632850143       11.0526040936       18.8522543707
  C         0.3782010529        9.2673444295       29.1519701500
  C        -1.9926330662        9.0582461543       28.0499893392
  C        -1.5916167743       11.8520110868       30.1545641357
  C        -1.4769067249       13.2082472853       30.3372077175
  H         5.1789169650       11.8775155274       22.2150869023
  H         4.8681613175       12.7496783619       20.7249191389
  C         6.9076554550       12.5277408888       21.2147704243
  S         2.3879831326        5.2798827966       19.9183398415
  N         2.9402809183        5.7134731429       18.4839899980
  C         3.2820180053        7.8861247820       17.3311245833
  H         3.5787665862       10.0414904944       16.6955358776
  H         0.5801365349        8.2143503141       28.7764456701
  H        -0.0845697931        9.0965819907       30.0946686384
  C         1.6588736250       10.0984346506       29.3970802043
  H        -1.7135090908        8.2769476626       27.3142022713
  H        -2.1223376633        8.4151273479       28.9200514303
  C        -3.2124852410        9.7681989071       27.5540356148
  H        -1.9066945783       11.0947519565       30.8305309673
  C        -1.6631959814       13.9470640144       31.6168533516
  H         6.9158692333       11.6061692244       20.6940818985
  H         7.6087207713       12.3461648747       22.0535675018
  C         7.4947861690       13.5974951366       20.2741959965
  C         3.5459401638        7.1893955014       16.1146262916
  H         2.0042185691       10.5881960410       28.4741622900
  H         1.4264825251       10.8840516196       30.1855283488
  C         2.7114283559        9.1264552275       30.0354966119
  H        -2.9714317621       10.3961639367       26.6275956762
  H        -3.6062544170       10.5042513510       28.2359161427
  C        -4.3736536843        8.8991148638       27.1578778342
  C        -1.7017773038       15.3778298734       31.6598015035
  C        -1.8888839766       13.2254130828       32.8702622366
  H         7.1518393358       14.5953928385       20.4266263133
  H         8.5485630868       13.5670778320       20.5168684108
  C         7.2262517995       13.2212100846       18.8281994162
  H         3.4201546109        6.1345606586       16.1501981059
  C         3.6626646718        7.5872839709       14.7867277840
  H         2.9697874722        8.4263402825       29.3011846613
  H         2.1795101145        8.6255687389       30.7668465127
  C         3.9690024402        9.8090430404       30.5012371889
  H        -4.0651565591        8.1662302588       26.3822428884
  H        -4.7718406136        8.3015245420       27.9705458933
  C        -5.4756277827        9.7709756634       26.6856103260
  N        -1.3551064885       16.2971495396       30.6654649688
  C        -1.9440068753       16.0086102682       32.8786184100
  C        -2.1320276520       13.8347131695       34.0394438243
  H        -1.8668266330       12.1337106482       32.8731501702
  H         7.7844604247       13.9791554614       18.3813022635
  H         7.5583226754       12.2147409385       18.5673579220
  H         6.1221541715       13.2724438325       18.5922771039
  S         3.9049467364        9.2029712582       14.2419618091
  C         3.7723981837        6.5661448402       13.7231924822
  H         4.1353035235       10.7542534343       30.0076513521
  H         3.8216617724       10.0329033122       31.5482005270
  C         5.2623523093        8.9520412748       30.3382919998
  H        -5.6997222011        9.4180124399       25.6664098719
  H        -5.1416286398       10.8611583556       26.7456962472
  C        -6.7121644654        9.4886728457       27.5064701385
  S        -1.3250390478       17.7785213893       31.2456813195
  N        -1.8983868184       17.4297217415       32.7216140327
  C        -2.2739046131       15.3014957982       34.0445749321
  H        -2.1869371516       13.2861404396       34.9688636090
  C         4.0692653517        8.5590154709       12.6730418984
  N         4.1129664947        7.1838095261       12.5956901074
  O         3.9357189702        5.3891669078       14.0163009752
  H         6.1700506033        9.5846319937       30.3162654615
  H         5.1258596403        8.3091990916       29.4658513122
  C         5.4392226895        8.1417221144       31.6427770958
  H        -6.9549550238        8.4734282912       27.7130589322
  H        -6.6011988555        9.7928054053       28.5689046607
  C        -7.9399456072       10.2844571871       27.0729980143
  C        -2.5982256794       16.0508705540       35.2390490003
  S         4.4631335427        9.3709116495       11.2265485431
  C         4.1953717322        6.4061194450       11.3435666134
  H         5.8711230870        8.9301144238       32.2745168749
  H         4.4171265237        7.9170235843       32.0693438929
  C         6.2842387667        6.8560820058       31.4699029071
  H        -7.6639817426       11.3137143323       26.7463872549
  H        -8.6191790626       10.4085964244       27.8882304792
  C        -8.9161123588        9.6109846116       26.0482620576
  H        -2.3765635656       17.0815372183       35.2649897252
  C        -3.0751007510       15.7016073142       36.4939330241
  H         4.9040632824        6.9200705672       10.6615590877
  H         4.5833948788        5.4020337413       11.3945138500
  C         2.7951025194        6.2588938824       10.8632134215
  H         6.9004475060        6.6551652016       32.3477495287
  H         6.9233140304        6.9878804937       30.5868636292
  C         5.4094153638        5.6235568535       31.3837180332
  H        -9.2061549601        8.6309850096       26.2891343317
  H        -9.8854864462       10.0575236238       25.8835561674
  C        -8.3111377971        9.5575306583       24.6934265536
  S        -3.5440920448       14.0833620764       36.9288874079
  C        -3.1254334509       16.7574853976       37.5244650496
  H         2.7127366506        5.6364742319        9.9239562425
  H         2.2024999710        5.7106539966       11.5703361130
  H         2.3277571803        7.2425858855       10.7031941685
  H         5.9453383519        4.7143010263       31.7034222396
  H         4.9104317981        5.5773318709       30.4298950381
  H         4.6540023382        5.7298719043       32.1748979139
  H        -7.6297385497        8.8007497202       24.6981413351
  H        -7.8758655840       10.5200205879       24.4693375371
  H        -9.0663567556        9.4215284896       23.9928652865
  C        -3.9601793519       14.8288039589       38.4830945319
  N        -3.6359470856       16.1908724040       38.6106458353
  O        -2.7461337735       17.9564949755       37.3558243236
  S        -4.6108078773       14.1200755113       39.9993392798
  C        -3.8171569698       16.9501200057       39.7989395349
  H        -3.8058829018       18.0577416852       39.6638803521
  H        -4.7958835228       16.9157449343       40.2413374200
  C        -2.7007970909       16.6163932895       40.8554298259
  H        -2.9543361365       16.8635228691       41.9026758782
  H        -2.3221091664       15.5956566541       40.9167339741
  H        -1.7998525144       17.1747677027       40.6420195466
