352
 i =    75600, time =    75600.000, E =        25.3209510164
  H        10.5410800740        4.8844734959       31.3447072932
  C        10.5707151275        5.9645557023       31.6078740268
  H         9.6152314136        6.3733816484       31.4519631617
  C        11.5807128462        6.6016186972       30.6406589159
  C        11.0944403706        6.0661296468       33.0342577858
  C        11.6497449619        5.8998504598       29.2640861758
  H        11.3281283180        7.6799500213       30.5758676789
  H        12.5260803083        6.5639849250       31.1498343127
  H        10.4157934074        5.7136373255       33.8030022698
  H        11.7929545234        5.2850949099       33.2685315599
  H        11.4703505988        7.0094538667       33.3171935734
  C        10.3141804705        5.8853735143       28.4455985028
  H        12.0030747905        4.8658099068       29.3031167557
  H        12.3287827937        6.5180334339       28.6745343498
  C        10.7267990664        5.5584893318       26.9820512265
  H         9.7129712474        5.1615779352       28.9176113036
  H         9.8018671063        6.8578776496       28.4990586809
  C         9.5722042500        4.7927880276       26.2475802876
  H        11.6567638009        5.0231840185       27.1136469015
  H        11.0282832196        6.4143195570       26.5449708796
  C         8.3851883205        5.6603252289       25.9021773658
  H         9.8693607889        4.2401554666       25.3973433774
  H         9.3384315484        4.0143126575       27.0266899406
  C         7.2604424448        4.8699371957       25.1775150933
  H         7.9658101781        6.0623994812       26.8607311243
  H         8.7244023413        6.5975531908       25.3671392953
  C         6.9180051894        3.4931888142       25.8726761266
  C         7.6910264587        4.1232870092       23.9907897722
  C         6.0767968466        5.7600636430       24.6715181743
  C         7.2470163072        2.4058997334       25.0507698318
  C         6.4206653782        3.0772555255       27.1025202349
  C         7.6865044494        2.7706064976       23.8062431629
  C         8.1722992703        4.7941469975       22.8897935228
  H         5.6099484716        5.2693809170       23.8566488011
  H         6.5302235551        6.6747594250       24.3458212927
  C         5.0827439229        5.9658469422       25.8457266099
  S         6.9505692960        0.8106499290       25.8875562985
  C         6.3925647625        1.7358449408       27.2879421964
  H         6.1678122172        3.8560335810       27.7976990042
  C         8.1361435454        2.1939126348       22.6368235945
  H         7.9968097841        5.8189750518       22.8129908633
  C         8.4600517314        4.2701550516       21.7190569558
  H         5.5547263727        5.7603725579       26.8658924859
  H         4.9535609778        6.9916430154       26.0339674128
  C         3.7095399835        5.0589157093       25.8482857465
  C         5.9485689858        1.1041927701       28.6016891602
  C         8.5549733162        2.9515778915       21.5589157468
  H         8.0159868636        1.1305005695       22.5700926030
  C         8.8499894415        4.7898449306       20.5449744965
  H         3.9323410658        3.9839856737       26.1049821427
  H         3.2999031049        5.0945612083       24.8800419934
  C         2.6160742883        5.5747595968       26.7852228753
  C         6.0510827015       -0.2463710483       28.9501667357
  C         5.2845181240        1.9623853710       29.6642762791
  C         8.9384614185        2.3100247060       20.2537360406
  C         9.1157730670        3.7719457669       19.6439177776
  S         9.1624199827        6.4135683802       19.9293793081
  H         1.6729067411        5.3945818444       26.2307459323
  H         2.8679811367        6.6087774638       26.9252653694
  C         2.7383744027        4.8328638296       28.1430813035
  N         6.4457077284       -1.2626332239       28.1118461133
  C         5.7120245822       -0.7560082448       30.1835685229
  C         4.9619577343        1.5077919605       30.9024304292
  H         5.0841055361        3.0619351016       29.4393121594
  C         7.6668955839        1.6008928202       19.6551513789
  C        10.2676803141        1.4652750822       20.3806258330
  C         9.5597312849        4.3058769336       18.4161749985
  C         9.6493958093        5.6577071622       18.3689319272
  H         2.3945529544        3.8080192721       28.1070667185
  H         3.7949561340        4.7947949384       28.4554715741
  C         2.0676436891        5.6597390187       29.2804430043
  S         6.5782265681       -2.6590759589       28.9549698856
  N         5.9785606569       -2.1726830291       30.3805620115
  C         5.1538135338        0.0728668818       31.2010018648
  H         4.6275628272        2.2004742563       31.6721210438
  H         7.4710642999        0.7270256883       20.1811043799
  H         7.9655753491        1.0769603276       18.6906526931
  C         6.3553375307        2.4538927798       19.4634986169
  H        10.5115191707        1.2849139432       19.3362827516
  H        10.0829822024        0.4650588860       20.9024348125
  C        11.4213006659        2.1589518893       21.1130779758
  H         9.8882296959        3.5803854611       17.6749886360
  C        10.1508943577        6.4828056666       17.1873487093
  H         1.4763306073        6.5038540704       28.8829103558
  H         2.7797483310        5.9230190157       30.0136504787
  C         1.0510487298        4.8764366725       30.0107926302
  C         4.8060559496       -0.5018854061       32.4292334242
  H         6.5691904511        3.2947597668       18.8043291816
  H         6.0174241615        2.9107850502       20.4393683883
  C         5.2271497578        1.5669290885       19.1048855317
  H        10.9637872317        2.6878989433       21.9611948052
  H        11.7835813370        2.9426115933       20.4252262983
  C        12.5846719812        1.3447393224       21.6218466597
  C        10.0644488529        7.8718494492       17.0574910039
  C        10.3533929713        5.7446708816       15.8538166660
  H         0.3208285049        5.6003551023       30.2754650345
  H         0.4789518854        4.1241616035       29.4194884142
  C         1.6619065561        4.1815643479       31.2408985677
  H         4.6406891025       -1.5463083741       32.3124682636
  C         4.4446093481       -0.0769365152       33.6949904886
  H         4.3508341927        2.1970752280       19.1908303642
  H         4.9815873071        0.7723370614       19.8453721887
  C         5.3557330001        1.0305387363       17.6643090828
  H        12.2147061270        0.5875624859       22.4001033514
  H        13.1865437793        0.8426852812       20.7813095416
  C        13.5022597532        2.2715126030       22.3426087677
  N         9.8510172152        8.6776644697       18.1221580625
  C        10.3732022155        8.5547832416       15.8778072637
  C        10.5116062123        6.4635053763       14.6466985752
  H        10.1376659614        4.7276921501       15.9058442971
  H         2.0786138994        4.9487657027       31.9051395683
  H         0.9909752530        3.6452632467       31.8182477982
  H         2.4994650380        3.5177740083       30.9749234061
  S         4.2786774572        1.5257523251       34.1681645239
  C         4.2391618322       -1.1208120197       34.7697332127
  H         5.4960328199        1.7573829746       16.9703062538
  H         6.1679448736        0.3422523607       17.5537429769
  C         4.0520067053        0.1889834533       17.3030408858
  H        13.0551212975        2.4594052296       23.3304296884
  H        13.6082598786        3.2080332325       21.8018980279
  C        14.8956174143        1.6584395793       22.5950354064
  S        10.0065797796       10.1906344555       17.6797757601
  N        10.3001314398        9.9669649001       16.0825036937
  C        10.7256453702        7.9316145315       14.6614967504
  H        10.4903358010        5.9943913936       13.7252238664
  C         3.8846756670        0.9098804374       35.7841363431
  N         3.8371197891       -0.4581729888       35.9018795443
  O         4.3169050738       -2.3100548285       34.5645564647
  H         4.0129250860       -0.0137793164       16.2412536012
  H         3.2550252835        0.8824041405       17.4148271080
  C         3.8981515992       -1.1048691330       18.0008099769
  H        14.6754465693        0.7212656427       23.0576772988
  H        15.2810718489        1.5283067553       21.6150643267
  C        15.6219441817        2.5934313145       23.4572293087
  C        10.9538796714        8.8037208996       13.5472858113
  S         3.2878685266        1.8362598182       37.1770269537
  C         3.6224618139       -1.2100222941       37.1217315077
  H         4.4246033058       -1.8941024718       17.4457987938
  H         4.2988492512       -1.1373017597       18.9637113916
  C         2.4037365433       -1.5862831174       18.0313288235
  H        15.0510661903        2.6655337464       24.4146593187
  H        15.5583066909        3.6025855372       23.0067474808
  C        16.9765231349        2.1673126793       23.8150577495
  H        10.7217816386        9.7826342005       13.8162652869
  C        11.4820856181        8.6221905145       12.3409240863
  H         3.0024428423       -0.7143983043       37.8726614161
  H         2.9963029334       -2.0242622363       36.9230634123
  C         5.0312020964       -1.5816887628       37.6513905628
  H         1.7923114154       -0.7074350871       18.1056840877
  H         2.1572870683       -2.1677305660       18.9380083868
  C         1.9696613966       -2.4689833166       16.8641246556
  H        17.3460685755        2.9703415065       24.3701758570
  H        16.8969677541        1.4138545314       24.6126343401
  C        17.9096581060        1.6425110482       22.6518482028
  S        11.8176101318        7.1607479434       11.6930966401
  C        11.6737867329        9.7615598551       11.4075175269
  H         5.7128803838       -2.0331160127       36.9030727752
  H         5.5312024336       -0.7023161294       37.9600819017
  H         4.8576891689       -2.2366819067       38.4885139878
  H         1.9643459243       -1.9091018838       15.8970124245
  H         0.9717873353       -2.8574105269       17.0855224821
  H         2.5860336558       -3.3242610549       16.7561469265
  H        18.8605194970        1.3799214273       22.9534370885
  H        17.9715959315        2.3855036118       21.8136117724
  H        17.4234602068        0.7804785781       22.2596848428
  C        12.4966271224        7.9690886426       10.2843460008
  N        12.3785621487        9.3501026257       10.3626272705
  O        11.1779695257       10.8631342986       11.5630840243
  S        13.0456623810        7.0899031153        8.8952318959
  C        12.6219248015       10.2583365034        9.2117353235
  H        12.7061531921       11.3457046451        9.4806046053
  H        13.3691397579        9.9519787598        8.5313356639
  C        11.3198292858       10.2113447661        8.4464468589
  H        11.2222312615       10.8840931549        7.5763145025
  H        11.3738774170        9.2550859835        8.0185369585
  H        10.4228033828       10.2097106293        8.9816460696
  H        -3.0779180706       14.9397986983       15.3222581311
  C        -3.0912094630       13.9608371724       15.9139395729
  H        -4.1119601297       13.8986025953       16.2727005536
  C        -2.0765686857       14.1217567510       17.0480894759
  C        -2.8986218610       12.8295761370       14.9120414251
  C        -2.5413717387       13.5776338526       18.4272348613
  H        -1.1640691150       13.5789193102       16.7155047068
  H        -1.8343538873       15.1772753021       17.2040582851
  H        -3.7110912114       12.0667368037       14.9448617857
  H        -2.9409631750       13.0962399741       13.8654250880
  H        -1.9883415280       12.2436884774       15.1046763667
  C        -1.5566128429       13.6116164045       19.6627623977
  H        -3.0102855037       12.6302564341       18.3179436060
  H        -3.3403604297       14.2320656166       18.6855362250
  C        -2.0480401050       13.1982322223       21.0493532017
  H        -0.8070408820       12.8902264558       19.4116734701
  H        -1.0176174891       14.5066845555       19.7252079856
  C        -0.9663590895       12.5354198155       21.8218410480
  H        -2.8656770693       12.5312192674       20.9498221567
  H        -2.5083107464       14.1166796524       21.5265412120
  C         0.1411751408       13.5159941872       22.3246773041
  H        -1.4543097880       12.1928579877       22.7679175225
  H        -0.5793173655       11.6573332362       21.2592208755
  C         1.2504645899       12.8391861874       23.1926902535
  H         0.5853835810       14.1008068814       21.5459861657
  H        -0.4675800145       14.2399834315       22.8373432879
  C         1.7092310919       11.5386316413       22.6227520134
  C         0.7822823550       12.1298442541       24.4577991712
  C         2.4141174217       13.8161845443       23.3829769749
  C         1.5357857265       10.4220229090       23.4363461716
  C         2.1152907967       11.2052842064       21.3503875942
  C         0.9293583538       10.7768926139       24.5922437369
  C         0.1638671831       12.7292970713       25.4928790028
  H         2.3910087800       14.5369532163       22.6140111390
  H         2.1112419502       14.4068537985       24.3012268086
  C         3.8070275347       13.3502551415       23.7500856726
  S         2.0437325109        8.9782633540       22.7118676372
  C         2.2684742687        9.8306651679       21.2467836539
  H         2.2043138126       11.9124433331       20.6076457801
  C         0.5170511928       10.1160842791       25.6967403872
  H         0.0592995690       13.8335574529       25.3421840786
  C        -0.2344241979       12.0957099807       26.6327625866
  H         4.0395925744       12.6305062681       23.0435342400
  H         3.7968114450       12.7647355294       24.6852955026
  C         4.8185321099       14.4907918261       23.8061805523
  C         2.5538505184        9.1076850302       19.9262790689
  C        -0.0866437929       10.7499431684       26.7820044533
  H         0.7059070596        9.0706424008       25.7570152367
  C        -0.6805420457       12.4677607198       27.8609258174
  H         5.5011548725       14.2313502942       24.5883764860
  H         4.5059739383       15.5116471414       24.1620579952
  C         5.6158963673       14.6021737370       22.5674010040
  C         2.4972043649        7.7298690422       19.6817208046
  C         2.9916914495        9.9605766103       18.7653766045
  C        -0.4867318725       10.0079520720       28.0010067290
  C        -0.8748319247       11.3517655056       28.6913998234
  S        -0.8985200196       13.9303849215       28.7159033307
  H         6.1403517486       15.5426798798       22.5792407463
  H         4.8821514052       14.7427082579       21.7301002496
  C         6.6445933224       13.4486186162       22.3784288069
  N         2.2928061326        6.7135689501       20.6490725446
  C         2.6920419598        7.1531208027       18.4524188824
  C         3.1921127438        9.3504297292       17.5414518418
  H         3.0532344477       11.0534061948       18.8802423045
  C         0.6580115187        9.3356559723       28.6987781066
  C        -1.8347220439        9.2010661265       27.8033861444
  C        -1.2187558784       11.6751055295       29.9827459198
  C        -1.2900963412       13.0246652832       30.1878548539
  H         7.0554804267       13.1071265339       23.3474903512
  H         6.1202239577       12.5170022866       21.9759396451
  C         7.6955241661       13.7610081611       21.3163358066
  S         2.2854964475        5.2376431194       19.9416768180
  N         2.5183209800        5.7655285407       18.4527812695
  C         3.0432852692        7.8747909246       17.3507293766
  H         3.5932368530        9.9191028367       16.7316052152
  H         1.2403022176        8.7612633101       27.9953195349
  H         0.1873957148        8.6070094117       29.3596821112
  C         1.7851529819       10.1071508004       29.4269771515
  H        -1.6432257442        8.6288434004       26.8520529314
  H        -2.1471134225        8.4726174247       28.5069749031
  C        -3.2191439901        9.9118882060       27.5317206089
  H        -1.5537484338       10.8711735322       30.6825684792
  C        -1.7420333607       13.7275201565       31.4771830015
  H         8.4551229424       12.9456079353       21.4146603229
  H         8.2335207378       14.6684606609       21.4988914133
  C         7.1175821043       13.6970411260       19.9868929245
  C         3.3277367093        7.2250003996       16.1120891505
  H         2.4442133839       10.6106986745       28.6901041500
  H         1.4867356396       10.9545093986       30.0935738123
  C         2.6250569840        9.0248811277       30.1472741074
  H        -2.9753044826       10.7135341482       26.7621767577
  H        -3.4549527358       10.3874875100       28.5178487897
  C        -4.3641364051        9.0051254947       27.1632052980
  C        -1.8570938861       15.1125265637       31.6434601643
  C        -2.1175003326       12.8817731656       32.6100093946
  H         6.5149057971       12.7885021864       19.8037799671
  H         6.4416457333       14.5293081194       19.7836004341
  C         8.3221388624       13.6993986025       19.0357342385
  H         3.2467769212        6.1261564877       16.1298942679
  C         3.5257604272        7.6936591612       14.8015949911
  H         3.0335071806        8.3749615661       29.3661525044
  H         1.9085890128        8.3892012454       30.6731765757
  C         3.5330966482        9.3455986655       31.2390956423
  H        -4.1037333771        8.4378324311       26.3630354833
  H        -4.5879215151        8.2352474305       27.9221728799
  C        -5.5123102054        9.9254359190       26.8637797483
  N        -1.4311961921       16.1201903175       30.7291343314
  C        -2.1978712445       15.6601519974       32.8709583555
  C        -2.4292860002       13.4034867724       33.8350350635
  H        -2.1028568787       11.8430238134       32.4217235392
  H         8.9138624456       12.7780235846       19.0862606255
  H         7.9591026718       13.8116899664       18.0166715832
  H         8.9647446569       14.5430173783       19.2736962150
  S         3.8020353366        9.3065880968       14.2633272099
  C         3.4800282412        6.6069711098       13.7525864263
  H         4.2452797259       10.1562188841       30.9761467235
  H         2.9466364810        9.6555283974       32.1467514557
  C         4.3316163050        8.2212876455       31.7909107421
  H        -5.2258503368       10.8590858541       26.4110367223
  H        -5.9763971375       10.2498678023       27.8203239595
  C        -6.3438985344        9.3087911159       25.7979683755
  S        -1.5213308732       17.5870914359       31.4279041333
  N        -2.0998426995       17.0806800076       32.8436498212
  C        -2.5441818483       14.9266843418       34.0032829252
  H        -2.6364951854       12.6602449375       34.5647069699
  C         4.0219674309        8.5487031431       12.6765019940
  N         3.8671891198        7.1588491219       12.6029892320
  O         3.2031086829        5.4170422604       13.8627341634
  H         3.6630549553        7.3453143014       31.9894724080
  H         4.9048053541        8.5458828104       32.6157783201
  C         5.3166784338        7.6899782861       30.8383335902
  H        -5.7750395709        8.8333821800       25.0327407359
  H        -6.9835087646        8.5727971157       26.3301856111
  C        -7.2703605766       10.3397801343       25.1810782384
  C        -2.8490575886       15.5444772748       35.2213205501
  S         4.4652060264        9.4249609962       11.2599172892
  C         3.9576357766        6.3640458175       11.4527851816
  H         4.8005604410        7.1613148450       30.0041010827
  H         5.8051042608        8.5849566516       30.4689825279
  C         6.2490601246        6.7765033673       31.4901974257
  H        -6.7907703051       10.9585322762       24.3155018606
  H        -7.5573582528       11.0518952351       25.9157405102
  C        -8.5259504659        9.6710307723       24.7105193117
  H        -2.6537185074       16.5903833278       35.2622131547
  C        -3.3798587920       15.0553267743       36.4054925260
  H         4.7942397212        6.6643258712       10.8118221435
  H         4.2283487353        5.3566484042       11.6257919723
  C         2.5908992516        6.3665973448       10.7025717752
  H         6.8534921772        7.3914308685       32.1895707014
  H         6.9712438233        6.4305536969       30.6993506168
  C         5.5952301991        5.6532964837       32.1993309146
  H        -9.0375070549       10.3748926565       24.0306102863
  H        -8.2612397579        8.8734396723       24.0119016799
  C        -9.5927568078        9.3778851369       25.7327786381
  S        -3.8056638719       13.4564025078       36.8482742545
  C        -3.7051001804       16.0703694733       37.3886686189
  H         2.8753725909        6.7324873482        9.7275099369
  H         2.1315754853        5.4541282283       10.5768207442
  H         1.9194359130        7.1267025136       11.1456128227
  H         6.2113151236        4.8046656844       32.3912776444
  H         4.7826457978        5.2463308005       31.6492317772
  H         5.2651076563        6.0052059183       33.1978552530
  H       -10.4669148182        8.9498761951       25.1264859508
  H        -9.9325692392       10.3496388527       26.1052942112
  H        -9.3331441511        8.8047565643       26.6217476065
  C        -4.4045379424       14.1413936203       38.3811553753
  N        -4.3616712557       15.4837710378       38.4069900610
  O        -3.3601970235       17.2476305738       37.3499146133
  S        -5.0405409475       13.2051858570       39.7119735549
  C        -4.6385425308       16.2252468926       39.5863289641
  H        -4.9728818315       17.2702720698       39.3610470957
  H        -5.4741248204       15.6664360356       40.0526321620
  C        -3.5288278454       16.1804669950       40.5839274399
  H        -3.3506060465       17.1484453916       41.0670738420
  H        -3.7372483815       15.4316941888       41.3811184183
  H        -2.5661182177       15.8456275507       40.2352070929
