352
 i =    96900, time =    96900.000, E =        24.9710204051
  H        10.3421707783        5.2251111321       31.3984116740
  C        10.5022305230        6.2791984735       31.8816541443
  H         9.4819646434        6.7516529797       31.9610261032
  C        11.4414126912        7.0324389063       30.9486807098
  C        11.0161653779        6.1720361897       33.3187004037
  C        11.7817925704        6.4237998454       29.6623410960
  H        10.9997143860        7.9627597290       30.5834303701
  H        12.3308987268        7.3875970752       31.4576839498
  H        10.9091789421        7.0659643353       33.9019162605
  H        10.4053162564        5.4682523953       33.9505568566
  H        12.0877468735        5.9526704193       33.5148437064
  C        10.5304433376        6.2082447151       28.7659194031
  H        12.3439993380        5.4930508830       29.7756373880
  H        12.4824522673        7.0080759077       29.0462274518
  C        10.7765943879        5.7464788350       27.3870424378
  H         9.9477205735        5.3575997273       29.2858352365
  H         9.8693597675        7.0433281139       28.8531703206
  C         9.6687060442        5.0188204065       26.5657375001
  H        11.6629596755        5.1300068979       27.4631473941
  H        11.0122313087        6.5970506126       26.7524831154
  C         8.4993648154        5.9205953746       26.1518515991
  H        10.1476931985        4.8388261595       25.6000169791
  H         9.3741759389        4.0993822331       27.0163969300
  C         7.4311322677        5.0920565168       25.4306387597
  H         8.2927620732        6.3674088017       27.1186523233
  H         8.9322019091        6.7412049702       25.5975843159
  C         6.9785663399        3.8229535048       26.1159315844
  C         7.8264946533        4.3086884108       24.2169443852
  C         6.2383145173        5.9737461807       24.9679515455
  C         7.1396100277        2.6754282643       25.2848331185
  C         6.4547132225        3.5564945865       27.4027348496
  C         7.7585767480        3.0116095782       24.0861679333
  C         8.3414823205        4.9989527972       23.1520642494
  H         5.7861242407        5.5269195528       24.1561877068
  H         6.6283261118        6.9638680119       24.5904469702
  C         5.1585832285        6.1977428486       26.0238200317
  S         6.6128548070        1.2519693206       26.0240024452
  C         6.2332020063        2.2023417604       27.4772527345
  H         6.3366358276        4.3557058345       28.2123165365
  C         8.1217885279        2.4217900965       22.9053517205
  H         8.4596207514        6.0946965444       23.1822215241
  C         8.7577397510        4.4462906545       21.9718491200
  H         5.5680882479        6.0448442393       26.9840995203
  H         5.0056892443        7.3039517238       25.9733425496
  C         3.8246531878        5.5368714992       25.7805959154
  C         5.7438599929        1.5417326715       28.7723604040
  C         8.7021358047        3.0747038096       21.8428671753
  H         8.0504941250        1.3870780613       22.9564877125
  C         9.2628237214        4.8059526716       20.7552499754
  H         3.9873542570        4.4503158073       25.8137318222
  H         3.4910574858        5.8336904447       24.7863535088
  C         2.8027098309        5.9638356543       26.8744469913
  C         5.7182519701        0.1283381959       29.0291222012
  C         5.2826050071        2.4475406231       29.8476184732
  C         9.0912965892        2.3526535157       20.5574118721
  C         9.4546636175        3.7032917733       19.8938839115
  S         9.5585374656        6.2824985749       19.9683869639
  H         1.9000000458        6.2451957608       26.4293736348
  H         3.2374016547        6.7910890097       27.4047628621
  C         2.6305389851        4.8886266010       27.9096228002
  N         6.0347121605       -0.9276366548       28.1467495310
  C         5.5764860197       -0.3622143322       30.3391401465
  C         5.0585353556        1.8892239459       31.1105660085
  H         5.0633599856        3.4571374060       29.6552584105
  C         8.0399995130        1.5159879344       19.7948655318
  C        10.4487229517        1.5147122828       20.8400301251
  C         9.7795647291        4.1229985932       18.5961143230
  C         9.8961050535        5.5014562758       18.4048116740
  H         2.1666884915        4.0393484271       27.4506810371
  H         3.5647575168        4.6413970325       28.3755920566
  C         1.6178557069        5.3455185553       28.9319866808
  S         6.1776664488       -2.3550596763       28.9892539864
  N         5.8193359536       -1.7371023379       30.4690149854
  C         5.2714117155        0.4373266088       31.4706498284
  H         4.6857544757        2.5376875944       31.9097299454
  H         7.9008280720        0.6734467819       20.4284183548
  H         8.3266682824        1.2550934102       18.7978351878
  C         6.6822291486        2.2311029233       19.5175551041
  H        10.7476148282        0.9903614728       19.8757309926
  H        10.2718192571        0.7945189319       21.6418366831
  C        11.6542794774        2.3795602509       21.0298710474
  H         9.8454493338        3.3607070533       17.7931191863
  C        10.1922515921        6.2392774486       17.0733836906
  H         0.9904578692        4.5146751364       29.2975784291
  H         0.9319774516        6.0628374271       28.5206257438
  C         2.3842480036        6.0983161930       29.9706771289
  C         5.0247237069       -0.2056442810       32.7266846287
  H         6.8801050756        3.1417628702       18.8936566941
  H         6.2371188779        2.6920392066       20.3307086313
  C         5.7681396311        1.2841225277       18.7109917639
  H        11.4472666413        3.2448117536       21.6025634419
  H        11.8626345179        2.8465075420       20.0482657570
  C        12.8435205777        1.6354742497       21.7072359669
  C        10.1842799653        7.6189877018       16.9652842706
  C        10.3453389224        5.4308039789       15.7941875246
  H         3.3035402821        6.5404485334       29.5907161277
  H         1.7605520992        6.8356636383       30.3900974507
  C         2.6917920795        5.2257929392       31.2341344615
  H         5.2093632237       -1.2245282505       32.8591931361
  C         4.6804903666        0.4242406571       33.9391146276
  H         5.6268702949        0.3611455374       19.1710220988
  H         6.2485875455        1.0708317176       17.7899167711
  C         4.4453584834        2.0193701705       18.3883341181
  H        13.0746443942        2.1659135447       22.6399768523
  H        12.4480446665        0.6324004613       22.0075660814
  C        14.0590063631        1.4798288016       20.7902079249
  N         9.9924661647        8.5684818297       17.9948081644
  C        10.4812417425        8.3054130623       15.8189926009
  C        10.6092485836        6.1313208299       14.6270887790
  H        10.1799281884        4.4267207573       15.8789655782
  H         1.7698215938        4.6737905051       31.4068458830
  H         3.4656809316        4.5180313829       30.9106259249
  H         3.0064847488        5.7797693770       32.0870972612
  S         4.5837210055        2.0663434929       34.4393071547
  C         4.5852867018       -0.5851292057       35.0449252168
  H         4.3586989616        2.9072809085       19.0762736574
  H         4.5593179958        2.4522365184       17.3532673729
  C         3.2049854126        1.1452458563       18.6593837543
  H        14.2553953515        2.4665686860       20.1839232071
  H        13.8783311968        0.6037498961       20.2040765585
  C        15.4105267920        1.2821582696       21.5249414038
  S        10.1210081575       10.1080097510       17.4457731992
  N        10.5989016013        9.7376200757       15.9450262605
  C        10.8717025107        7.5888557057       14.6461043606
  H        10.5815622963        5.5353642405       13.6971375618
  C         4.3014539705        1.4430711235       36.0765518054
  N         4.3471653488        0.0608089257       36.1994313577
  O         4.6633898375       -1.7701800386       34.8903859183
  H         2.2941513019        1.7743787631       18.8177125600
  H         3.3816261816        0.7902883697       19.6013391373
  C         3.0009203938        0.1238871141       17.5672297423
  H        15.2354644690        0.5734920751       22.2331371006
  H        16.0446578292        0.6753986792       20.9567703423
  C        16.0738372980        2.4911258411       22.1690665030
  C        11.1903602259        8.3172395905       13.4208191986
  S         3.9745282036        2.4295397740       37.4115471565
  C         4.1317555671       -0.5233486838       37.5029940077
  H         2.9482723330        0.6197273222       16.5535735667
  H         3.8852893375       -0.4396264971       17.3437215430
  C         1.8918314373       -0.8522841403       17.8929797964
  H        15.4079723178        3.1258810191       22.7971427847
  H        16.4091817763        3.1740255790       21.3076166827
  C        17.2329811044        1.9888206038       23.0900550198
  H        11.1151081080        9.3999715612       13.5713138164
  C        11.7421001573        8.0084556331       12.2419838478
  H         3.4445753947        0.0855543893       38.0730833954
  H         3.5935591765       -1.4296523015       37.3113566303
  C         5.4412805811       -0.7189294154       38.3213386926
  H         1.5178264772       -1.2653989088       16.9718386925
  H         0.9374362285       -0.3495302626       18.1845803624
  C         2.2454382469       -1.9950299270       18.8466307080
  H        17.1862784750        2.7417415682       23.8413544695
  H        16.8896731587        1.1698353377       23.7471906560
  C        18.5710747138        1.7855120208       22.3421141815
  S        12.1050046504        6.3754409733       11.6430196847
  C        11.8770484545        9.0600059478       11.2373298947
  H         5.3026834437       -0.7375816247       39.4334304175
  H         6.0243996840       -1.5950134859       38.0331389336
  H         6.1116313188        0.1147383538       38.0469095817
  H         2.8775516469       -1.6777278804       19.6523714476
  H         2.7330122015       -2.8299381561       18.2421145271
  H         1.2491223315       -2.3058654458       19.2484202927
  H        19.4021590311        1.4283776701       22.8276371122
  H        18.8121966073        2.7043713947       21.8594892777
  H        18.5196565793        1.2085306879       21.3834256525
  C        12.6429423492        7.1908881691       10.1897952886
  N        12.5150064806        8.5554852770       10.1827699388
  O        11.6590344099       10.2242573912       11.3977299418
  S        13.0176996688        6.3819855435        8.7375225667
  C        12.8213763431        9.4456737330        9.0639298886
  H        12.9679698502       10.4098948256        9.4866458470
  H        13.6661734258        8.9341451320        8.5836171647
  C        11.6119352798        9.3325767172        8.0455694699
  H        11.6459575282        8.5791622200        7.2471892774
  H        10.7400336152        9.0089961264        8.6275134321
  H        11.3477603899       10.2962562748        7.6304467383
  H        -1.8245831256       12.4045985806       17.3175764432
  C        -1.8807472778       13.3373213561       16.8432656078
  H        -0.8073252998       13.4944071614       16.8567708755
  C        -2.7438282053       14.3107342171       17.6413044384
  C        -2.3675868920       13.1383597619       15.3757853033
  C        -3.0375475536       13.6699521947       18.9816740637
  H        -2.1975609545       15.2665099394       17.7168086475
  H        -3.6702490687       14.5787610373       17.0639828475
  H        -3.3973502106       12.8417662574       15.4902204743
  H        -2.3506614819       14.0149838473       14.7329879465
  H        -1.8482599572       12.3481575828       14.8388790514
  C        -1.7361525429       13.6208430304       19.9118691536
  H        -3.5054753346       12.7972846007       18.8679885618
  H        -3.7139084072       14.3372562551       19.5095989397
  C        -2.1364605195       13.7008226855       21.4193082538
  H        -1.2237864274       12.6275836955       19.7202692693
  H        -1.0178168019       14.4186133665       19.7136636830
  C        -1.0669677413       12.9220001691       22.2332625971
  H        -3.1200733632       13.1855771354       21.6101241095
  H        -2.1894653414       14.7053378357       21.7236767223
  C         0.1870845285       13.6686055890       22.7248954068
  H        -1.6889076406       12.6207418068       23.1293768602
  H        -0.8201573066       12.0480993887       21.6970460080
  C         1.2811936717       12.8215048874       23.3985674595
  H         0.7270019792       14.0823701335       21.9267894789
  H        -0.2352295065       14.4771846078       23.3873653909
  C         1.5003453968       11.4660904546       22.7029762469
  C         0.7330846656       12.1031803917       24.5905754452
  C         2.6096328910       13.4817638643       23.7741503452
  C         1.3120712432       10.3047016604       23.5420261977
  C         1.9993055301       11.0394985965       21.4533615538
  C         0.7293737373       10.7438643220       24.6905230444
  C         0.2705946981       12.7887011489       25.7120015694
  H         2.3893072428       14.3535319986       24.3787221068
  H         3.0655732264       12.8247223463       24.5847336108
  C         3.4188232185       13.9637502250       22.6388897074
  S         1.6374614307        8.9039683848       22.6923100300
  C         2.2565190108        9.7273655889       21.2885791099
  H         2.1275960006       11.7429932268       20.6831208361
  C         0.2879232072       10.1351034002       25.8255133271
  H         0.5080485182       13.8108297394       25.6725442759
  C        -0.1525698195       12.1904162917       26.8663375315
  H         2.9612417269       14.8070797405       22.1693961316
  H         3.3986924172       13.2899252937       21.7579934940
  C         4.9111345431       14.3037049190       22.9717822943
  C         2.8441772948        9.0404619175       20.0758763727
  C        -0.1361072215       10.8512923557       26.9322765317
  H         0.5704457273        9.1000606863       25.8165840651
  C        -0.5320523572       12.5686274164       28.1053133206
  H         5.2915487149       13.6146326369       23.7326635443
  H         5.0116425682       15.2652433563       23.4733680317
  C         5.8306209874       14.4370723609       21.8475187280
  C         2.9049555827        7.6555260069       19.8726909228
  C         3.3659321397        9.9136014448       19.0035047434
  C        -0.5482743184       10.2078491752       28.2211344477
  C        -0.6854772259       11.5017838361       28.9534516188
  S        -0.6647720832       14.0744816302       28.9699373781
  H         6.7549866386       14.9796787485       22.0554618961
  H         5.2918639221       14.9930770690       21.0295497045
  C         6.1530602128       13.0541534051       21.2182888784
  N         2.4854467047        6.6400839155       20.8122343320
  C         3.1114879939        7.1361956389       18.5998962297
  C         3.6497270946        9.3697242863       17.7514282600
  H         3.4655128523       10.9780170461       19.0721391928
  C         0.5280575343        9.2695143801       28.7426074510
  C        -1.8923127706        9.4108981722       28.1851095565
  C        -1.0899309103       11.8383242781       30.2584502269
  C        -0.9894070677       13.1879882991       30.4494767436
  H         7.1006615238       12.7909815476       21.4958455103
  H         5.5520024343       12.3154949961       21.7307786601
  C         5.9818119598       12.9840643084       19.7284101595
  S         2.4367049721        5.2378339212       20.0151531875
  N         2.9808452181        5.7482106483       18.5714510731
  C         3.3807141752        7.9331184670       17.4940865450
  H         3.9991064076       10.0569390102       16.9986104680
  H         0.7479270457        8.4598852695       28.0150484847
  H         0.1763626275        8.6780827425       29.5844062695
  C         1.5859970397       10.0548815541       29.4184480623
  H        -1.7551403107        8.5604302872       27.5443147131
  H        -2.1393043311        9.1597511247       29.2456261636
  C        -3.0106865529       10.2464191622       27.5190219016
  H        -1.2305835292       11.1679486737       31.0124240562
  C        -1.3915036418       13.9047532022       31.6976833387
  H         5.5284173590       13.9107698413       19.3266715818
  H         5.3446360509       12.1577893141       19.4794133692
  C         7.3076469119       12.7356462972       19.0345392706
  C         3.5826401992        7.2347374088       16.1984682173
  H         1.8808318891       10.9222728710       28.8241588586
  H         1.1817006933       10.4420456143       30.2871223931
  C         2.9349111429        9.3721712520       29.8157802785
  H        -2.6366072615       10.6734998981       26.5435557730
  H        -3.0641236313       11.0507096753       28.1410373259
  C        -4.2884044004        9.5549660611       27.0693879799
  C        -1.5129701312       15.3014630391       31.8223895913
  C        -1.7555135268       13.1284856266       32.9424471294
  H         7.9875921382       13.5754976643       19.3253796729
  H         7.7049936588       11.8467039772       19.4344023252
  C         7.1702899559       12.6206747084       17.5412781715
  H         3.4526202413        6.1685846990       16.2233427897
  C         4.0147086350        7.6619374779       14.9138483684
  H         3.2740496500        8.7289185217       29.0292045129
  H         2.6827436735        8.6972675648       30.6502730983
  C         4.0283636344       10.4164720189       30.0280650419
  H        -4.1680368679        8.9448549285       26.1834786631
  H        -4.5642673492        8.8038358132       27.8325775236
  C        -5.2498492086       10.6810514820       26.7504100491
  N        -1.2390220044       16.2273465886       30.8200891222
  C        -1.8997735481       15.9721333567       32.9682166534
  C        -2.2426726084       13.7884259919       34.0958269764
  H        -1.6247459638       12.0590583690       33.0058170428
  H         7.1849698583       13.6534677811       17.2310663666
  H         7.9622070828       12.0352869149       17.0380307277
  H         6.1643857135       12.2151538893       17.2322358202
  S         4.1496520667        9.3187508281       14.3608704740
  C         4.2135471716        6.5920341550       13.8992215800
  H         4.2328106264       10.8690197175       29.1192272903
  H         3.6311311459       11.2602552144       30.6687292266
  C         5.2899715848        9.9285105212       30.7517044713
  H        -4.8017064804       11.6084177414       26.3404413169
  H        -5.5509558015       10.9794921740       27.7070244762
  C        -6.4083807772       10.2614906393       25.9038639129
  S        -1.3834473669       17.7358980247       31.3575225580
  N        -1.9673249780       17.3318843016       32.7966955002
  C        -2.2591744864       15.3075416281       34.1827560170
  H        -2.4745607826       13.2000379767       34.9571732881
  C         4.5554121555        8.5844663766       12.7781646585
  N         4.6002610131        7.2223770357       12.7449170332
  O         3.9857834620        5.3958394838       14.1416668301
  H         5.0300101349        9.3450476970       31.6847038031
  H         5.6703234708       10.8463469160       31.2068486546
  C         6.4833580273        9.3122230282       29.9634649043
  H        -6.2781736227       10.6023275400       24.9135892472
  H        -6.5117333373        9.1642547489       25.8987885507
  C        -7.7189617803       10.7949931586       26.5063603863
  C        -2.6427748990       16.1381476391       35.2628511821
  S         4.8865503726        9.5195603557       11.3797180156
  C         4.5171124559        6.4888561847       11.4630042297
  H         6.6354781051        9.9142527184       29.0853642678
  H         7.3310547739        9.4835750017       30.5945118197
  C         6.4835875381        7.8414991169       29.6490115580
  H        -7.7551541819       11.8837996363       26.3312241801
  H        -7.6290348854       10.8017291524       27.6177330672
  C        -9.0792725832       10.1184567715       26.1363209814
  H        -2.3258669211       17.1884432028       35.2517710830
  C        -3.2266466443       15.9158270856       36.4582096218
  H         5.1653104558        7.0505848704       10.7850653999
  H         4.9690333563        5.4958513935       11.6283149608
  C         3.0779408806        6.3339498289       10.8813055909
  H         7.4576684604        7.5728770840       29.2475347938
  H         5.7748338049        7.6571108791       28.8290712620
  C         5.9432187889        6.9649977463       30.8252664754
  H        -9.3191667163        9.4024087104       26.8660216736
  H        -9.8593408047       10.8741514739       26.3135642604
  C        -9.0844443607        9.5654842926       24.7434228671
  S        -3.6347332070       14.4239229244       37.1019008956
  C        -3.3418592375       17.0422411492       37.4330839805
  H         2.4844071873        6.7609165210       11.6953892054
  H         2.9646748774        7.0152828648       10.0514475017
  H         2.9909758528        5.2451398060       10.5997482989
  H         5.9591539114        5.9345409792       30.5292195618
  H         4.9032593371        7.2302656980       31.0935548412
  H         6.5119463702        7.1658333108       31.7209863130
  H        -8.3081762212        8.7895899771       24.5961231643
  H        -8.8875688585       10.3716658673       23.9831760232
  H       -10.0746416718        9.0750352007       24.6283602279
  C        -3.9007910186       15.2237664114       38.6384150317
  N        -3.8397530820       16.5723363047       38.6022622794
  O        -2.9820449412       18.2202081247       37.1455000411
  S        -4.3158414645       14.4301141728       40.0867519252
  C        -3.9868103126       17.4091591728       39.7883280865
  H        -4.2155438704       18.4452128831       39.4535180205
  H        -4.8466615325       17.2003225955       40.5010076579
  C        -2.7370796451       17.5848922485       40.5799126689
  H        -2.4999537257       16.6718290063       41.0958475254
  H        -1.9253759807       18.0288296067       39.9802761481
  H        -2.9756895587       18.4463898053       41.2752874869
