352
 i =     3500, time =     3500.000, E =        38.0972379104
  H        11.7059871758        6.9842314624       32.1531579397
  C        11.3076048402        6.0051648214       32.3018193087
  H        12.2378937646        5.4716165795       32.2479928021
  C        10.3815309650        5.8757114798       31.1707985472
  C        10.5518315615        6.0702226254       33.6734987953
  C        10.9485230522        6.1537527395       29.7652471787
  H        10.0455457329        4.8700831370       31.2139690399
  H         9.4794163063        6.3804760163       31.2671804893
  H        11.3605918856        6.1186878652       34.3887892206
  H         9.7811024826        6.8581096453       33.8462203173
  H        10.0084982280        5.1062495117       33.8563846154
  C         9.8621809315        6.2092209681       28.6684127361
  H        11.7295558030        5.4335227538       29.4855800018
  H        11.3703201764        7.1405022132       29.8167112692
  C        10.3274262533        5.6605953328       27.3030812892
  H         8.9384097089        5.8525654239       28.9135483900
  H         9.7939625037        7.2911844562       28.5345497398
  C         9.2686857432        4.8297408115       26.6395679888
  H        11.3000146176        5.1866679154       27.2928758500
  H        10.6259450210        6.5768267604       26.6878152326
  C         8.1666906497        5.6614371032       25.9850337851
  H         9.6067468568        4.1081083203       25.9348988586
  H         8.9935669964        4.1635084402       27.4036751349
  C         6.9905113917        5.0035366485       25.2336353696
  H         7.7403337133        6.3154851542       26.7176302852
  H         8.7706034993        6.2042169217       25.1922806244
  C         6.6951841638        3.6780641090       26.0082919335
  C         7.3589741232        4.2856354885       24.0060044497
  C         5.8417670757        5.8562509230       25.0984556093
  C         6.9575588452        2.5692550035       25.2277172780
  C         6.2576337715        3.2801259701       27.2866749612
  C         7.3829815107        2.9403865012       24.0180603867
  C         7.9395644843        4.9361396108       22.9107876558
  H         6.1506528425        6.7324503086       24.5526483994
  H         5.4674360052        6.2923977380       26.0353457342
  C         4.6304469872        5.3742398198       24.2746605594
  S         6.6049921773        1.0976858995       26.0704447261
  C         6.1471656485        1.9332712427       27.4991887047
  H         5.9593348806        4.0256782531       27.9918228513
  C         7.7966811595        2.2603711284       22.8830740150
  H         7.9046795731        6.0504548285       22.9575184258
  C         8.2277922526        4.2998234462       21.8361884676
  H         4.8764095450        5.3056951086       23.2972787521
  H         4.5732417145        4.3952848376       24.5862075344
  C         3.2898801897        6.2179686135       24.4398947596
  C         5.8275227819        1.2962302435       28.8352505202
  C         8.2565787523        2.9332782145       21.7474419702
  H         7.7085928498        1.2226715718       22.9198576772
  C         8.7039835146        4.6756559892       20.5935809280
  H         2.5983231767        5.7483061085       23.8422287876
  H         3.5090544048        7.1219843152       23.9665833122
  C         2.7478557789        6.3390583754       25.8813504231
  C         5.7766038641       -0.0793202601       29.0945897212
  C         5.4129589666        2.1536804683       29.9353012903
  C         8.7418072763        2.2181586888       20.5175350040
  C         8.9613892408        3.6426501455       19.8211769968
  S         9.0086078080        6.2838500991       19.9317375442
  H         1.9448322111        7.1266690776       25.7822137588
  H         3.4908196075        6.5986918519       26.6462290140
  C         2.0525808538        5.0663810868       26.4048077341
  N         6.1418492816       -1.0680476256       28.1610675275
  C         5.4981376743       -0.5516868332       30.3316028627
  C         4.9951910413        1.6947483955       31.1524356966
  H         5.4091084776        3.2100456347       29.7525788198
  C         7.6546912624        1.4163820415       19.8213150487
  C        10.0458149036        1.3608185962       20.7280671816
  C         9.3697822071        4.0975213387       18.4851723184
  C         9.5359174703        5.4409770307       18.4071257729
  H         1.6614143364        4.5025391033       25.5838149150
  H         2.7804883036        4.3786432046       26.9371020001
  C         1.1489786930        5.4221915797       27.5774370583
  S         5.8406239947       -2.5356059148       28.8140773608
  N         5.4541734510       -1.9619156175       30.3251977914
  C         4.9667948828        0.2601086189       31.4172164728
  H         4.4193911374        2.3653605189       31.8066119307
  H         7.3860715994        0.5570289134       20.4448898998
  H         7.9086877156        0.8586595431       18.8774210122
  C         6.3817204624        2.2604436053       19.5289906118
  H        10.4996770858        0.9679382985       19.8257328781
  H         9.9886728730        0.4770912436       21.3108972715
  C        11.1690532827        2.0155333352       21.4769614481
  H         9.3760088523        3.3284904549       17.7126112521
  C         9.8347137997        6.2616192582       17.2020678988
  H         0.4946906697        4.6503549267       27.9100800307
  H         0.3921377276        6.2073870353       27.2918141636
  C         1.9881520504        5.7177145191       28.8141775615
  C         4.7806152133       -0.3182960573       32.7421195884
  H         6.7074837252        2.9566656196       18.7060245854
  H         6.0629264213        2.8338246576       20.4196260242
  C         5.2670858878        1.4917220370       18.8320932077
  H        10.9228858777        2.5980311703       22.3554733526
  H        11.5482327168        2.7871784022       20.7564049030
  C        12.4514822553        1.3016460203       21.8228496900
  C         9.8263059320        7.6667043785       16.9266899825
  C        10.0582210320        5.4898999341       15.9402297282
  H         2.6841493328        4.8839263936       28.9408934938
  H         2.4233418089        6.6230969487       28.6668283051
  C         1.1301000331        5.7353702324       30.0390712885
  H         4.5558513761       -1.4367475984       32.6173325307
  C         4.4472494465        0.2314715303       33.9889957383
  H         4.7611236794        0.6918378187       19.3826854038
  H         5.8079455095        0.9789179654       18.1194833040
  C         4.2426476488        2.3592237122       18.0985018243
  H        12.4153308342        0.8667195579       22.8388892447
  H        12.6647464255        0.4634953020       21.1862833989
  C        13.6566945325        2.1885953663       21.8297383555
  N         9.6039783714        8.6439568735       17.9734732849
  C        10.1455593851        8.2890706517       15.7602762757
  C        10.1257007435        6.1235861289       14.6364649828
  H        10.3537745203        4.3969393752       15.9716123756
  H         1.8227648732        5.9819022400       30.8109017432
  H         0.2793108449        6.5654508232       30.0268724698
  H         0.6777513062        4.6712830568       30.1926759251
  S         3.9340616381        1.8625386326       34.3212144215
  C         4.3865494508       -0.6637311372       35.1808218568
  H         4.0729589205        3.1636059274       18.8210602919
  H         4.5538204905        2.7117963031       17.1831856694
  C         2.9153029196        1.7819990897       17.9379145124
  H        13.5985089195        3.2000592736       22.1925561290
  H        13.9405056386        2.2362203251       20.7559503959
  C        14.8515485251        1.4759762905       22.5493927312
  S         9.7344940333       10.1377479331       17.3742698352
  N        10.1514881074        9.6621003858       15.8873371455
  C        10.3790534367        7.6253274026       14.5932218790
  H        10.5600423562        5.5014358507       13.8805697218
  C         3.7916653778        1.3412093260       36.0087498509
  N         4.0612608208        0.0075275255       36.3021217291
  O         4.6783963504       -1.8761271676       35.2005769402
  H         2.3031080281        2.6816294913       17.7036805719
  H         2.6451806471        1.5729023208       18.9469429095
  C         2.7917033909        0.5098051457       16.9831025947
  H        14.6428923691        0.7032646832       23.3097792054
  H        15.4206832562        1.0260737546       21.7504812166
  C        15.6830936027        2.5933800234       23.2181695156
  C        10.7772721847        8.3802650332       13.4875568068
  S         3.4895966391        2.3840499717       37.3495775415
  C         3.9599360153       -0.6921112311       37.6171894733
  H         1.9222428052        0.5248184835       16.4755225102
  H         3.6163890039        0.4742835555       16.3928987435
  C         2.8466889856       -0.9686618954       17.6840885230
  H        15.1562376598        2.9360271023       24.1256698661
  H        15.9770780019        3.3595271706       22.5496556928
  C        16.8969166617        1.9139656819       23.8833994214
  H        10.7085969823        9.4222846151       13.5924781101
  C        11.2617260325        8.0039051790       12.2767219016
  H         3.1262041603       -0.2125697864       38.1466693774
  H         3.6575247066       -1.6730198116       37.6724878717
  C         5.2577248460       -0.6862792427       38.3468897421
  H         2.5156166686       -0.9195396760       18.6858240565
  H         3.8015165119       -1.5258411972       17.4874558883
  C         1.8407575097       -1.9422702684       17.0093154506
  H        17.2387716383        2.6150195182       24.7362229170
  H        16.5773985321        1.0277984435       24.4469572012
  C        17.9735719455        1.5928592271       22.9199445155
  S        11.7725288949        6.4651448824       11.7602017160
  C        11.5631392507        9.1112887831       11.3508879044
  H         5.7502410713       -1.5805460034       38.0797535707
  H         5.7158331406        0.2021115524       38.1055031642
  H         4.9542802505       -0.6142616330       39.3170702474
  H         1.8440793215       -2.6787913470       17.6867534500
  H         2.2095382195       -2.4124931121       16.1583742308
  H         0.8720528884       -1.4775216019       16.9803235638
  H        18.6083540520        0.6780582787       23.1898089829
  H        18.7438947579        2.3744346625       22.9087889010
  H        17.4826518999        1.6654644571       21.9819409426
  C        12.3753006441        7.2582542769       10.3326857924
  N        12.1979323468        8.6013981085       10.2723090839
  O        11.1231432373       10.2572066380       11.5383189051
  S        13.2355345061        6.5820118952        9.0170160852
  C        12.5788145498        9.3360215851        9.1728228836
  H        12.6960304496       10.3057306534        9.6166328885
  H        13.4944914272        9.0541902528        8.8343670658
  C        11.5055252307        9.4455533116        8.0689212378
  H        11.1026432259       10.5189244908        7.8978311208
  H        11.7925147623        9.0847676639        7.0822657969
  H        10.5038956370        9.0011669149        8.2249433259
  H        -4.1438706529       12.6938562894       16.9325139246
  C        -3.1450178136       13.0435480790       17.0470771096
  H        -2.4076712611       12.3214278343       17.6232033833
  C        -3.3647944691       14.3368682003       17.8301330356
  C        -2.7081480240       13.3786070341       15.5930602190
  C        -3.4241922721       13.9314966297       19.3096567380
  H        -2.4430211014       14.8770821498       17.7111689846
  H        -4.3111478797       14.9465779829       17.6665770036
  H        -3.5298203927       13.7623994108       15.1547244007
  H        -1.9075178400       14.2024762441       15.4864322177
  H        -2.5822860238       12.5077997155       14.9652602909
  C        -2.0917447307       13.6332943124       19.9674688001
  H        -4.1696404483       13.1199151796       19.5355098050
  H        -3.8591110621       14.8126653865       19.7907366514
  C        -2.3732806705       13.3289714548       21.4304094964
  H        -1.6193771795       12.7790944857       19.4807158257
  H        -1.3817969106       14.5122463758       20.0018734634
  C        -1.1901895515       12.6562169173       21.9935533456
  H        -3.0152935079       12.4830524927       21.5325717270
  H        -2.7102395726       14.1374438257       22.0465353638
  C        -0.2493935157       13.4745511277       22.7531979732
  H        -1.5826880820       11.8093527947       22.5778310049
  H        -0.6824635019       12.1730846080       21.1250964994
  C         0.9385759388       12.7647867139       23.4235505279
  H         0.2506308671       14.2470755763       22.1625140870
  H        -0.7306220357       14.1261337567       23.5109650782
  C         1.3881699508       11.3241800367       22.8390380502
  C         0.5830681937       12.0341795249       24.6720749212
  C         2.1317854485       13.7734752211       23.4830878667
  C         1.0901431483       10.2671417163       23.6832902278
  C         2.0000745394       10.9259352745       21.6140128474
  C         0.6034889004       10.6819276171       24.8719553980
  C         0.0356787059       12.7400403885       25.6646244900
  H         2.4349960570       14.0653641395       22.4997506104
  H         1.8713738277       14.7126257364       24.0586359788
  C         3.3181824468       13.1346034656       24.1001754993
  S         1.3847806929        8.7662355313       22.9356448624
  C         1.8058701373        9.6008561184       21.4691716658
  H         2.3320699569       11.6431966371       20.8671780514
  C         0.1576641288       10.0611465724       26.0368238751
  H        -0.0321991961       13.8543834737       25.5910549176
  C        -0.4054511512       12.1811618959       26.8382705356
  H         3.4973448150       12.2474301853       23.5030231975
  H         3.0456539682       12.8229804568       25.1295804820
  C         4.5943979571       13.9212130461       24.2390643207
  C         2.2714758587        8.8515629364       20.2356049983
  C        -0.2876585863       10.8303868570       27.0846339731
  H         0.1640491859        8.9571625431       25.9817069566
  C        -0.7806440978       12.6717344113       28.0957122632
  H         5.2926713552       13.4830002410       24.9370793567
  H         4.4087689298       14.9223113978       24.8301643790
  C         5.4834282877       14.1690056411       23.0144058170
  C         2.3311996896        7.4928441646       20.0196459373
  C         2.8225052366        9.7027636243       19.1191390964
  C        -0.7367042156       10.2333177746       28.3525070372
  C        -1.0004099338       11.6447408722       29.0153896975
  S        -1.2420729143       14.2107047713       28.8203474923
  H         6.1784960289       14.9631574259       23.3440994474
  H         4.9558604291       14.6509730208       22.1737526038
  C         6.1253055852       12.9892395406       22.4569064170
  N         1.9567694939        6.4650959258       20.9599296874
  C         2.6171620060        6.9340863607       18.7313764903
  C         3.0617248469        9.1459293688       17.8869555575
  H         2.8063082307       10.7752293044       19.1290119607
  C         0.4251985703        9.4608040704       29.0498548141
  C        -2.0186948112        9.3147739377       28.2832132761
  C        -1.3870951602       12.0376112330       30.2659789793
  C        -1.4991368324       13.3471892468       30.3215862498
  H         6.7755554237       12.5758806363       23.2867941588
  H         5.4937612388       12.1230545568       22.2918851339
  C         6.9312594018       13.2716545908       21.0921158489
  S         1.9569306518        5.0177851995       20.2277346776
  N         2.5061935228        5.5233764958       18.7762209397
  C         2.9069637276        7.6945724943       17.5900941991
  H         3.3177507638        9.7243319789       17.0541349417
  H         0.7250538196        8.5536846742       28.5081733776
  H        -0.0342093743        8.8259754840       29.8565839814
  C         1.6045612699       10.3599335682       29.4641465441
  H        -1.7620488804        8.4039894180       27.7397300497
  H        -2.2200811101        8.9890727897       29.2686475515
  C        -3.1549556424       10.0868242077       27.4970834992
  H        -1.4173270514       11.2993097724       31.0352800672
  C        -1.7605941733       14.1103524450       31.6287786031
  H         7.7255671703       12.6327961351       20.9668465080
  H         7.4751762016       14.1557584463       21.2746535794
  C         6.0854534922       13.4464027583       19.8217356284
  C         3.2941471914        7.0375647607       16.4211547458
  H         1.8551182175       11.0581639957       28.7258304071
  H         1.3613357896       11.0310471532       30.2440379973
  C         2.7875504169        9.5424033540       29.9653226988
  H        -2.7757756309       10.3200467619       26.5609737689
  H        -3.2811412795       11.1180234114       27.8821028154
  C        -4.5053280919        9.4299530389       27.4114915986
  C        -1.8766542393       15.4920913450       31.7739139086
  C        -2.0959473189       13.2397994661       32.8715976241
  H         5.5410767608       12.5052519348       19.7725805970
  H         5.3970876276       14.3542264543       19.6546912352
  C         7.0773501327       13.4892836505       18.5476490054
  H         3.1398976249        5.9233062260       16.3264937786
  C         3.4899137358        7.4568052581       15.1504304413
  H         3.1733272370        8.9069141590       29.2086241968
  H         2.5268398752        8.8535387562       30.7842351147
  C         3.9669623102       10.3071251532       30.5906944894
  H        -4.3885744388        8.3873758311       27.4603656225
  H        -4.9973471586        9.5745859508       28.3874273883
  C        -5.3654713083       10.0298703878       26.2595148976
  N        -1.6632090787       16.4647275732       30.7937010629
  C        -2.1876194407       16.0036527725       33.0586365653
  C        -2.2570153157       13.8437601758       34.1490997174
  H        -2.1521918033       12.1835914395       32.8555333239
  H         8.1273010502       13.3824749679       18.6613549848
  H         6.7125332323       12.8319994574       17.8556340884
  H         7.0133687075       14.4713968970       17.9965202116
  S         3.8006296949        9.0884838364       14.6528845612
  C         3.5330359005        6.4262152897       14.0071100268
  H         4.0568352660       11.1222416261       29.7866519586
  H         3.7925102385       10.8524426670       31.4397042446
  C         5.3187914371        9.5899226806       30.7310215601
  H        -5.2672759622        9.4564465250       25.2965974677
  H        -4.9604257657       11.0104559769       25.9872973132
  C        -6.8497644434       10.1501732036       26.5783284262
  S        -1.9349570534       17.9656007415       31.4996566846
  N        -2.4462578125       17.4486197330       32.9302888814
  C        -2.5052136867       15.2908510265       34.2090754902
  H        -2.3215467916       13.2952732682       35.0464418088
  C         4.0781108058        8.4803406062       13.0661185067
  N         3.8452663129        7.1630058279       12.9167252666
  O         3.2802206390        5.2714319750       14.0985956887
  H         5.9303086859       10.2611589799       31.3189140429
  H         5.9227957044        9.4739081274       29.7957028111
  C         5.2934159590        8.2453347903       31.3726467579
  H        -7.1394530006        9.0932738878       26.7470996390
  H        -7.0547941408       10.6982080577       27.5576187345
  C        -7.5475759384       10.7028539127       25.4273002860
  C        -2.9536957888       16.0137611488       35.3426193927
  S         4.3703568182        9.5529444313       11.7017463467
  C         3.8744918612        6.3904834703       11.6677805715
  H         6.0298021332        8.1690763689       32.1277555430
  H         4.3197825791        8.2010059497       31.8838748433
  C         5.3620534976        7.0530633214       30.3730058429
  H        -7.1037313275       10.2887567410       24.5023119649
  H        -7.6140883216       11.7815181402       25.4312521640
  C        -9.0218541771       10.2035729802       25.5897189505
  H        -2.8744568661       17.1237250454       35.1718908490
  C        -3.5937956442       15.7655473133       36.4727206528
  H         4.4946220737        6.7899222836       10.9048351212
  H         4.3664244495        5.3892865165       11.8260553640
  C         2.5543345080        6.5202751432       11.0189423838
  H         6.3542927939        6.9744585169       29.9132177998
  H         4.5372349651        7.3032859682       29.6351317574
  C         4.9974142077        5.8350219627       31.1749377803
  H        -9.6672298754       10.4621046511       24.7777858448
  H        -9.0074296453        9.1423209459       25.5023145471
  C        -9.7764223378       10.5637389510       26.7533328798
  S        -3.9956957304       14.1950414191       37.0897418401
  C        -3.7411064436       16.8903620043       37.5008205574
  H         2.5413290583        7.3267039143       10.2863508161
  H         2.0197901712        5.5885003051       10.7560255323
  H         1.7868371529        6.8456894178       11.6473271917
  H         4.2189887902        5.2353086644       30.7522534026
  H         4.6067539078        5.9917841898       32.1454798260
  H         5.8438203856        5.2773295463       31.3211538334
  H        -9.7671029441        9.7030109700       27.4703385929
  H       -10.7572832098       10.7123561262       26.4022597936
  H        -9.3241990698       11.4349385732       27.2548793789
  C        -4.2076845405       14.9673809488       38.6564105085
  N        -4.1352674962       16.3307059230       38.7180119379
  O        -3.3988496860       18.0558154598       37.2630345810
  S        -4.4766220608       14.2283861654       40.2923304868
  C        -3.9319881896       17.0897103901       39.8831689497
  H        -4.1513075639       18.1376982365       39.5414754616
  H        -4.7181666235       16.9056392055       40.5905435862
  C        -2.4750739537       16.9636057116       40.3607551736
  H        -1.6710902371       17.6188558311       39.9595555377
  H        -2.4074377973       16.9249714187       41.4588207692
  H        -2.1288497011       15.8879154828       40.1437122485
