352
 i =    16100, time =    16100.000, E =        24.1546196699
  H        12.0828583147        5.9964187392       32.6093824405
  C        11.6396007223        4.9850686143       32.5612716975
  H        12.4048473505        4.2487420856       32.5768047986
  C        10.7283471878        4.8997363457       31.3694037428
  C        11.0504438868        4.6645154946       33.9530503581
  C        11.3154954107        5.3195507076       30.0187329518
  H        10.3408262396        3.8578836103       31.2219104038
  H         9.8483490099        5.5172435905       31.7093242090
  H        10.3336143742        3.7926602469       33.9856038608
  H        11.8541329662        4.3955336710       34.6034364048
  H        10.6197379784        5.6677251566       34.1916096311
  C        10.2403739568        5.4786898595       28.8879289664
  H        11.9146556744        4.5246012448       29.6850686933
  H        12.0475091916        6.1865321807       30.0708337133
  C        10.8107404110        5.4956588724       27.4884036549
  H         9.5966093046        4.6466045300       28.8180203023
  H         9.6116838182        6.2990426431       29.1416812952
  C         9.8453125198        4.8226125227       26.4964796757
  H        11.7651478075        4.9906602480       27.3748462957
  H        11.0979892542        6.5027842154       27.1922029113
  C         8.5111204763        5.6478499110       26.2524193924
  H        10.4127761899        4.7282359625       25.5783683252
  H         9.5750793850        3.8242010733       26.8275465816
  C         7.4033739418        4.9233258683       25.4124801689
  H         8.1481603335        5.8213034786       27.2804022410
  H         8.7580891474        6.6322162362       25.7651814009
  C         7.0441035471        3.4771319863       25.9586627456
  C         7.9450827851        4.3063623749       24.1441696836
  C         6.1202698482        5.7645058730       25.2119017919
  C         7.3032939052        2.4586443576       25.0983217657
  C         6.5162068346        3.0204486172       27.1595383106
  C         7.8612695622        2.9512410359       23.9451053183
  C         8.3531729604        5.0407253906       23.0242782346
  H         6.3642266524        6.7029843259       24.7099109742
  H         5.7961377860        6.0666878002       26.1844155241
  C         4.9082469342        5.0870486808       24.5707220919
  S         6.9764672614        0.9183121070       25.7878692806
  C         6.4389168310        1.6848776866       27.2840559438
  H         6.3011598291        3.7348974660       27.8770993027
  C         8.3316773271        2.4594778505       22.7622698124
  H         8.2609835260        6.0634700443       23.2212928231
  C         8.7555310458        4.4817545923       21.8362345075
  H         5.3530158972        4.8019146667       23.6047368377
  H         4.7612816518        4.0759027230       25.0262710261
  C         3.6124323115        5.8287481547       24.5252482871
  C         6.0926305973        1.0421779468       28.4807684815
  C         8.7890480734        3.1655832320       21.6898498115
  H         8.3158592882        1.3965414771       22.6158435013
  C         9.2439875787        4.9068724624       20.5820059112
  H         2.8545281446        5.3485409460       23.8370162769
  H         3.8658392262        6.8823592007       24.0940949818
  C         2.8716386879        5.9769235913       25.8510626566
  C         6.1293316501       -0.3853053781       28.7346118844
  C         5.5052189576        1.8325740957       29.5476533519
  C         9.3101419445        2.4413118276       20.4193437561
  C         9.5060687546        3.8369818367       19.7494237360
  S         9.5665482458        6.3834247599       19.8316737497
  H         1.9575898111        6.5237141809       25.4639394158
  H         3.5196311627        6.5879015529       26.4709229712
  C         2.4426072848        4.6455058742       26.5342723539
  N         6.4374452715       -1.3499904085       27.7783912548
  C         5.8396505549       -0.9683671663       29.9804218112
  C         5.3111129063        1.2231389037       30.8177389137
  H         5.1174478193        2.8797461898       29.4829509418
  C         8.2693294062        1.5242816394       19.7057149501
  C        10.6002490020        1.6148401166       20.6650589078
  C         9.9591756520        4.2208390808       18.4624362112
  C         9.9931561900        5.5758198264       18.3820805802
  H         1.8240176891        4.0578082520       25.8847894459
  H         3.2281810696        3.9350291879       26.7263551054
  C         1.6782416620        4.9675768135       27.8248450624
  S         6.3963201809       -2.8354800748       28.4585821062
  N         5.9543374287       -2.3861744098       30.0024096168
  C         5.5217098581       -0.2077359756       31.1271455098
  H         4.8556498009        1.8783381656       31.5919590059
  H         8.2349034337        0.5969511609       20.1800299398
  H         8.5707331292        1.3488445733       18.6802309511
  C         6.8787605442        2.1364043546       19.5681860782
  H        11.0720216908        1.3823069060       19.7271044915
  H        10.4217199014        0.6719439894       21.1900255047
  C        11.7476451904        2.3934582775       21.2569746670
  H        10.2275094992        3.5223984305       17.7474783696
  C        10.1858523985        6.3246427230       17.0590856553
  H         0.9210785637        4.1799172758       27.9947748365
  H         1.3033735477        5.9530593356       27.7302648506
  C         2.6758092726        4.9999465948       29.0111484376
  C         5.2208513831       -0.8297955099       32.3064674465
  H         6.9437750058        3.1899021493       19.3482308480
  H         6.3696075449        2.0939344064       20.5566403155
  C         6.0288858697        1.5103407245       18.4384032897
  H        11.5398817179        2.9024014725       22.1962620368
  H        11.9615189553        3.1662121757       20.5059058502
  C        13.0482390631        1.5801499870       21.2786214107
  C        10.1268987422        7.7564296890       16.9519425563
  C        10.2369670041        5.6044481777       15.7543860331
  H         3.3299132554        4.0870916427       29.0072578066
  H         3.1494587261        5.9342128293       28.8886263480
  C         1.9310212006        5.0434605476       30.3200671121
  H         5.3130244154       -1.8755876603       32.2492840229
  C         4.8738687383       -0.4350517617       33.5452380522
  H         5.8047410429        0.4753094165       18.5823021572
  H         6.5466120474        1.4703358067       17.3927348207
  C         4.7585706027        2.2453922758       18.4184339343
  H        12.9871875830        0.8298575398       22.0285433937
  H        13.1131088909        0.9410957180       20.3615397158
  C        14.2339210925        2.5038787959       21.4429240213
  N         9.9073691042        8.6674978683       17.9861555781
  C        10.3727829793        8.3598825168       15.7675344789
  C        10.3348423644        6.2048869037       14.5343248418
  H        10.1261898938        4.4912840985       15.7873141469
  H         1.4379431353        6.0323904790       30.4532434918
  H         1.1408638675        4.2906856772       30.1680736511
  H         2.4677457453        4.8998949823       31.2587523307
  S         4.4331007349        1.1548046469       34.0178927065
  C         4.6873427612       -1.4633874396       34.5859945057
  H         4.8263753789        3.0670347409       19.0966954131
  H         4.6081385465        2.5956008318       17.4236203758
  C         3.5421740986        1.4062340545       18.7267012588
  H        14.0802724776        3.3141350510       20.7338692137
  H        15.1387067544        1.8946345040       21.1352040821
  C        14.5579855112        2.9121347583       22.9090030574
  S        10.0453227662       10.2233724348       17.4800757493
  N        10.3749906122        9.8086835464       15.9405544800
  C        10.6248759061        7.6807561733       14.5464009897
  H        10.4302080971        5.6532990889       13.5720790367
  C         4.0229737670        0.4836046646       35.5277053619
  N         4.2618559290       -0.8375086183       35.6547076606
  O         4.9958097596       -2.6616944248       34.5268458382
  H         2.6779186414        1.9798257610       18.7572211422
  H         3.7152198344        0.8923287918       19.6843851389
  C         3.2557528256        0.3305198492       17.6282812712
  H        15.1168928705        3.8427879644       22.9435673566
  H        13.5933757120        3.0973308760       23.3694070582
  C        15.2401370784        1.8417793961       23.7178815950
  C        10.8513773995        8.5767581431       13.4952624281
  S         3.5813693150        1.2817352367       36.9707126094
  C         4.2038019052       -1.5883660395       36.9113938657
  H         2.8259135067        0.9107800835       16.8156397996
  H         4.2493970999       -0.0018019232       17.1533023191
  C         2.2633414923       -0.7195255757       18.1309612624
  H        14.9809692948        0.8828010142       23.2863755475
  H        14.7417843388        1.8092078411       24.6967718251
  C        16.7767912465        1.8949144602       23.7930973976
  H        10.5884862613        9.6053079229       13.5812932936
  C        11.3118273166        8.3511696739       12.2280302550
  H         3.2509713415       -1.4729132962       37.4464050999
  H         4.0311400430       -2.6578693558       36.7868267681
  C         5.4405143861       -1.3718447416       37.7775614655
  H         1.3077853063       -0.2484298445       18.2943638108
  H         2.5402236744       -1.3318190753       19.0030620488
  C         2.0177666579       -1.8329821101       17.0290890500
  H        16.9983356881        2.8264082003       24.4519097320
  H        17.1877165537        1.0152020678       24.3019162823
  C        17.5180952679        1.8768044167       22.4608242481
  S        11.8478543709        6.8131747984       11.6379267887
  C        11.5198244634        9.4526074987       11.3320682956
  H         5.4166327537       -1.9551952188       38.7164433699
  H         6.4334642446       -1.4525645021       37.3013048384
  H         5.5009060179       -0.3781904384       38.1323748631
  H         1.2755909517       -1.6995405816       16.1933944710
  H         1.7633254740       -2.7076687950       17.5448059474
  H         3.0066749341       -2.0520613940       16.5336754803
  H        18.5983117314        1.7808695075       22.7247048611
  H        17.5557910201        2.8022537539       21.8852492231
  H        17.1876214716        1.0772795601       21.8479527924
  C        12.4349238667        7.6728117888       10.1876173517
  N        12.0962386544        8.9561231271       10.2185382865
  O        11.0035504418       10.5508424045       11.4713033524
  S        12.9753140834        6.8625672713        8.6789113513
  C        11.9406776903        9.7107707412        8.9841808545
  H        11.9942176321       10.7469409185        9.3336943669
  H        12.7431010224        9.5249313177        8.1660050833
  C        10.5923161988        9.4708666401        8.3365262681
  H         9.9129315141        8.8628635937        8.9151173594
  H        10.0730968782       10.4469663246        8.0874905450
  H        10.6786829140        8.9234480718        7.4084046306
  H        -3.0163981872       15.0582759856       16.1645842913
  C        -3.2055015529       13.9217965316       16.2358218717
  H        -4.2696576640       13.8552935072       16.5002326736
  C        -2.3483956711       13.1407857641       17.2399326453
  C        -3.1021059502       13.2641437826       14.7986662512
  C        -2.4020408780       13.8627560390       18.6010963091
  H        -2.5527451777       12.0853025935       17.1815625254
  H        -1.2535959991       13.2506727833       17.0174593340
  H        -2.2429157832       13.6939705136       14.2402707114
  H        -3.1093196146       12.1932311230       14.6863523624
  H        -3.8831909457       13.7332142301       14.1658098685
  C        -1.5656465987       13.1148191512       19.6322703325
  H        -3.4282482780       13.9580518579       18.8393661949
  H        -1.9290494827       14.8401802223       18.3568968246
  C        -2.1029415986       13.0698586983       21.0404150905
  H        -1.2787409447       12.1734932739       19.2413479693
  H        -0.6207737295       13.6395265701       19.5333521404
  C        -1.0773983895       12.4003886889       21.9739429555
  H        -3.1218609460       12.6198959971       21.0556497644
  H        -2.2690841724       14.0552417985       21.4636845737
  C         0.0237743530       13.3339180515       22.4177298512
  H        -1.5437612998       11.9916977064       22.8220817250
  H        -0.6903375386       11.5975562412       21.4417844677
  C         1.2595672654       12.6860729041       23.1079578268
  H         0.4577753295       13.7146115149       21.4777363494
  H        -0.2740926770       14.2827787994       22.8124070318
  C         1.5814676884       11.3336620372       22.4707893002
  C         0.9312042521       11.9768516309       24.3847319674
  C         2.5265871144       13.5497883284       23.3076485587
  C         1.4687435238       10.2295854914       23.2879269540
  C         2.0412673392       10.9893719054       21.2042568811
  C         1.0410218700       10.5903886272       24.5496024596
  C         0.4235964484       12.6363187365       25.4805730186
  H         2.6421654751       13.9054750959       22.2854253929
  H         2.3372818899       14.4244133070       23.9722843528
  C         3.7358396283       12.7808501934       23.8255011297
  S         1.8463882601        8.7467978218       22.4493587562
  C         2.1577340154        9.6697435015       21.0246446811
  H         2.0800208931       11.7373245826       20.4390970192
  C         0.6099242449        9.9715197520       25.6690876164
  H         0.2565070359       13.6580949490       25.2273906463
  C         0.1099196898       12.0122372430       26.6618857078
  H         3.8722725591       11.8851820071       23.2723745556
  H         3.5371088455       12.5381888699       24.8735215840
  C         5.0388064877       13.5961136450       23.7719680982
  C         2.5607223017        8.9541757136       19.7340316589
  C         0.2023503362       10.6551277640       26.7974443204
  H         0.6555865064        8.9446662479       25.7752041504
  C        -0.2993519417       12.3920105332       27.9273297484
  H         5.6925819726       12.9715051372       24.3545850567
  H         4.7836955925       14.5291714260       24.3732179283
  C         5.6172289714       13.8293799819       22.4272618332
  C         2.6563646367        7.5550360039       19.4283356474
  C         3.1133140893        9.7928628728       18.6743893544
  C        -0.1838248813        9.9997614647       28.0524457618
  C        -0.5273196784       11.3290133146       28.7891840511
  S        -0.7334230512       13.8873063627       28.6276701410
  H         6.5890467268       14.3722879418       22.5515484838
  H         4.9192912361       14.4219636231       21.8229147990
  C         6.0702440274       12.4993686067       21.7215857748
  N         2.4944871283        6.5214086524       20.3293149334
  C         2.8296211471        7.0116583984       18.1636013287
  C         3.4521109684        9.2701282729       17.4452994943
  H         3.2449704395       10.8565954412       18.7937863299
  C         0.8410183614        9.0977565151       28.7359010742
  C        -1.5436478818        9.3037920262       27.8935132686
  C        -0.9179265024       11.6732797725       30.0814570299
  C        -1.0201531776       13.0708160657       30.1562993230
  H         6.7494813135       12.1137022300       22.4555286735
  H         5.3318902116       11.7545974029       21.5714200009
  C         6.8655311199       12.8570701430       20.4681844290
  S         2.5945571012        5.0761092453       19.6356837051
  N         2.7100772707        5.5978591403       18.0994274765
  C         3.1754326521        7.8506088561       17.0975973686
  H         3.8605972482        9.8927909481       16.6720412528
  H         1.0990644255        8.2819012809       28.1169367404
  H         0.4501492077        8.6550869312       29.6240884155
  C         1.9980287282        9.9634660077       29.1578303436
  H        -1.3222289874        8.4650284987       27.1869261626
  H        -1.8291448284        8.7558876639       28.8778896670
  C        -2.8048184831       10.0615672204       27.3627358785
  H        -1.0213936920       10.8782981672       30.8608903118
  C        -1.4462288825       13.8669410856       31.3202702727
  H         7.6008715600       12.0712276262       20.2799335548
  H         7.3298774118       13.8107372781       20.6238689359
  C         5.9718543729       12.9427116025       19.2431759426
  C         3.3414229831        7.2169440646       15.8077595371
  H         2.3888424910       10.5642000977       28.3199558770
  H         1.7566044451       10.6358032772       30.0422897774
  C         3.1936092953        9.1277504422       29.5719720526
  H        -2.4100740886       10.5829543970       26.4415737978
  H        -3.0099635196       10.8011242090       28.1077972797
  C        -4.0626364475        9.1595562624       27.0230338619
  C        -1.4341404013       15.2579893850       31.4781359505
  C        -1.7907861723       13.1417211811       32.5882428357
  H         5.3503061907       11.9905464846       19.1214038133
  H         5.3062845552       13.7292333305       19.4523349789
  C         6.6542853267       13.3203002992       17.9301996276
  H         3.5269848877        6.1383518112       15.9319810651
  C         3.5172116016        7.7307251105       14.5039962694
  H         3.7836492695        8.6465856831       28.7648409048
  H         2.7792956421        8.3912767864       30.1646547530
  C         4.0896852003        9.9156722580       30.4794229773
  H        -3.8816162449        8.6308744089       26.0627873795
  H        -4.1949999345        8.4268875344       27.8199486066
  C        -5.2980953986       10.0638299553       26.8639680174
  N        -1.1362877786       16.2414609540       30.4867496651
  C        -1.8817598784       15.9276927770       32.5652379303
  C        -2.1019943932       13.7938882260       33.7696700144
  H        -1.7578900488       12.1164645494       32.5712290371
  H         6.7310708323       12.4576556943       17.3785746453
  H         6.1365406493       14.0953416592       17.4552057189
  H         7.6840264047       13.5569894721       18.0671678615
  S         3.7058087856        9.3410565319       14.0105925658
  C         3.4770717055        6.7682112661       13.4153120694
  H         4.2024049624       10.8963407152       30.1923369255
  H         3.6163677082       10.0457899822       31.4368743307
  C         5.4703917551        9.3385926445       30.8012702549
  H        -5.4125677432       10.4243918823       25.8533006598
  H        -5.3152884007       10.9136588757       27.5805901876
  C        -6.6147506749        9.3027436849       27.0921829047
  S        -1.2852906455       17.7296256595       31.0744027132
  N        -1.8927876896       17.3334854330       32.4643688459
  C        -2.2491638433       15.2664762961       33.7782846148
  H        -2.2132888074       13.2061046440       34.6703213519
  C         3.9585642904        8.7364293441       12.4077680043
  N         3.8400205199        7.3981981034       12.2844947550
  O         3.1698142975        5.5745223537       13.5961684196
  H         6.0043044979        9.9397798634       31.4926621377
  H         6.0054727172        9.3934345849       29.8722548556
  C         5.4054763242        7.9737100303       31.5057706007
  H        -6.6347096010        8.3376789022       26.4964571342
  H        -6.6376784475        9.1509493290       28.1837047368
  C        -7.6618150559       10.3223545717       26.6819987562
  C        -2.5953976334       16.0855434519       34.8831448976
  S         4.4416600523        9.6704193407       11.0477393651
  C         3.8800293790        6.6340153768       11.0427870955
  H         5.8256212825        8.2302003667       32.4231241593
  H         4.3863790527        7.6042474885       31.6794544325
  C         6.3020021542        6.9445977492       30.8770654589
  H        -7.3418043501       11.2953885393       26.3392068391
  H        -8.1557723630       10.5908332012       27.6570626302
  C        -8.7703577239        9.7812084199       25.7991992226
  H        -2.6319929707       17.1218290557       34.7911253646
  C        -2.9621294827       15.7599265647       36.1991658300
  H         4.7432456793        6.8569959748       10.3594589861
  H         3.9016326138        5.6173577054       11.3303578479
  C         2.5263013495        6.7139028075       10.3461336260
  H         7.3619328413        7.0889023505       31.1680828399
  H         6.2415594584        7.1213102373       29.8072374004
  C         6.0279058526        5.4280074987       31.0933289873
  H        -9.0253760103        8.7106616819       25.9541829568
  H        -9.6938152754       10.3617969990       25.8910918774
  C        -8.4071072183        9.8630366363       24.3325807407
  S        -3.4453099125       14.1665548164       36.7468468549
  C        -3.1232458297       16.8208211304       37.1927546214
  H         2.0092770163        7.6532117646       10.4255335548
  H         2.5520071719        6.4506706139        9.2848733351
  H         1.8900048134        6.0326243832       10.8023178573
  H         6.6933146766        4.8905037546       30.4958695440
  H         4.9711620063        4.9913801885       30.9943594001
  H         6.3681574421        5.1680945906       32.0128971958
  H        -7.7902082592        9.0901483662       23.8717030469
  H        -7.9316518359       10.8112674230       24.0318868100
  H        -9.2396335128        9.7674838934       23.7460277696
  C        -3.7088697221       14.9582549701       38.2553196889
  N        -3.5374492033       16.2723472052       38.3341293525
  O        -2.7133341517       17.9918606616       36.9835441536
  S        -4.6405913503       14.1546807389       39.5185619875
  C        -3.5571319041       17.1223467532       39.5602559907
  H        -3.4583172824       18.2034285867       39.2259538046
  H        -4.4557491233       17.1161875490       40.2317670137
  C        -2.3173966749       16.7686875114       40.3924706418
  H        -2.2811164571       17.3965174567       41.3044875009
  H        -2.4033328303       15.7420068316       40.8317613019
  H        -1.3353433104       16.8437425874       39.8938639384
