352
 i =     8600, time =     8600.000, E =        24.0651596850
  H        12.2059879579        6.9698795222       32.1484481853
  C        11.4645763517        6.1996974195       32.2386634442
  H        12.0658802908        5.3312141976       31.9990963420
  C        10.3260604514        6.3265406138       31.2542461780
  C        11.0828204417        6.2674512743       33.7203445335
  C        10.7449904211        5.5867065116       29.9335383143
  H         9.3875757966        5.9217760317       31.7183919386
  H        10.1867220765        7.3872011957       30.9792427867
  H        10.2305700713        6.9351510410       33.8291751162
  H        10.7938098088        5.2431484789       34.0647956041
  H        11.7461711828        6.8196254798       34.4302709136
  C         9.7955346635        5.7411249582       28.7404935312
  H        10.8645574142        4.5592149721       30.3006931487
  H        11.8136736157        5.8457148581       29.6287535263
  C        10.4701795147        5.5005665918       27.3790374108
  H         8.9563771525        4.9859263332       28.8963644486
  H         9.2397053197        6.7400125310       28.6935634670
  C         9.4256093745        5.0952975525       26.3794717387
  H        11.2269159394        4.6288048878       27.5903152046
  H        11.0577288855        6.4308887594       27.1342710161
  C         8.1547802004        5.9360035238       26.1291462161
  H         9.8387448307        4.8811134115       25.4081266770
  H         9.2073785347        4.0820016319       26.7266158285
  C         7.0471241542        5.1305650465       25.3423825681
  H         7.7308578112        6.2654067326       27.0122633211
  H         8.4486095725        6.8095424239       25.5935090710
  C         6.7822024432        3.7550013622       25.9946217732
  C         7.5249384748        4.4051533321       24.1360290950
  C         5.7686777892        5.9897826324       25.1249894499
  C         7.1481496255        2.6539834995       25.2932916255
  C         6.1185431770        3.3722632797       27.1593859857
  C         7.6384434696        3.0332420201       24.0641519299
  C         7.9803384221        5.0718470891       23.0454062505
  H         5.9239826624        6.8514991105       24.4378254342
  H         5.5123873089        6.3208698607       26.1278270445
  C         4.5192801166        5.1346293860       24.6866626368
  S         6.8549644546        1.2094246583       26.0944384275
  C         6.1064232254        2.0520225987       27.3674511725
  H         5.7239840914        4.1309209724       27.8042796746
  C         8.0354385664        2.4382615640       22.9099792161
  H         8.1494281427        6.1237477890       23.2325365444
  C         8.3822211497        4.5152628619       21.8352917779
  H         4.6481596147        4.8173558246       23.6548999059
  H         4.5186591990        4.3145664111       25.3723098466
  C         3.2149955098        5.8258578370       24.8018280102
  C         5.8109826043        1.3838472994       28.6985000129
  C         8.5205852216        3.1496090926       21.7811340956
  H         8.0888782182        1.3868664518       22.8736360747
  C         8.8625517131        4.9461609563       20.5976077920
  H         2.4324257246        5.2540475589       24.3923783403
  H         3.1576077167        6.7438086960       24.1322923146
  C         2.8289547296        6.1102498541       26.2899969112
  C         5.7601630758       -0.0037702577       28.9849670171
  C         5.5135098002        2.2324889268       29.7831145927
  C         8.9258000737        2.4606848885       20.5017107845
  C         9.1101946525        3.8014628535       19.7951335315
  S         9.1052966615        6.4972323297       19.8991098577
  H         1.9728485968        6.7264696822       26.3661531184
  H         3.5289231893        6.7604933014       26.8508662427
  C         2.5239300597        4.8596366564       27.0717907178
  N         5.7988779494       -1.0260730710       28.0446617605
  C         5.6549475954       -0.4819480778       30.2690206817
  C         5.2361223632        1.7623173809       31.0596171868
  H         5.4957645660        3.2867414941       29.6353954182
  C         7.8045846656        1.5397947715       19.9476683915
  C        10.2458161696        1.7394151958       20.8220598116
  C         9.4240388113        4.2615560384       18.4912858298
  C         9.4510753306        5.6667080645       18.3905538989
  H         2.3720512983        3.9557564743       26.5314493472
  H         3.3310073170        4.5684393073       27.5872456652
  C         1.3713812450        4.9370827522       28.1587120456
  S         5.8686267749       -2.4347930981       28.8681678281
  N         5.7244572225       -1.9061747793       30.3519914823
  C         5.3040640837        0.3324393756       31.3499235578
  H         5.0849162027        2.5272764344       31.8599271626
  H         7.4536256216        0.9664589538       20.7768221091
  H         8.2171770765        0.8716008984       19.2066157352
  C         6.6748937304        2.3457822061       19.3236728043
  H        10.4638771384        0.9833768006       20.0809161659
  H        10.0551784113        1.2175046451       21.7611520471
  C        11.3637703874        2.7022991831       20.9373055861
  H         9.7045589396        3.4863366108       17.7314201178
  C         9.8940321329        6.3360770789       17.1644737738
  H         0.7794762195        4.0028042967       28.2259161923
  H         0.6135632766        5.6873587062       27.8933600298
  C         1.9911500135        5.3155674915       29.5526737812
  C         5.0548654203       -0.3515218918       32.5674626801
  H         6.9927316602        2.9059942985       18.5127867353
  H         6.3549246470        3.0518760207       20.1770238381
  C         5.4907461604        1.4880734498       19.0022177015
  H        11.0098462831        3.5295021389       21.5573941618
  H        11.6134291578        3.0912441487       20.0239032800
  C        12.6595967490        2.1103653202       21.5397961923
  C         9.9196540648        7.7382711764       16.9056009461
  C        10.1981113119        5.4986142067       15.9563239588
  H         2.7305349617        4.5748947879       29.8399754702
  H         2.3386677601        6.3342777535       29.5523750817
  C         0.8481939038        5.3092178606       30.4990179278
  H         5.2184587033       -1.4335719969       32.5165637046
  C         4.7544700147        0.1201194925       33.7701835794
  H         5.0884952730        1.2066882223       19.9903937823
  H         5.6658788034        0.5585804413       18.3630705983
  C         4.4770716116        2.3366148455       18.2788461460
  H        12.4175245433        1.2031422017       22.0824682774
  H        13.3155771247        1.7138860855       20.7747744618
  C        13.2296793194        3.1710648942       22.5615322656
  N         9.5836429737        8.7303272667       17.8560720014
  C        10.2168442564        8.2605438094       15.6975319148
  C        10.4708237969        6.0889926763       14.7053954421
  H        10.0399754663        4.4471514632       15.9454787220
  H         1.3709181446        5.1812996029       31.4090218226
  H         0.3616598340        6.2879766888       30.5707369813
  H         0.0947173019        4.5316625402       30.2935669794
  S         4.6020728866        1.7610955253       34.3413285122
  C         4.6215987325       -0.8959885891       34.8597496544
  H         4.6610612054        3.4294215060       18.3370642612
  H         4.6578149819        2.2385283305       17.1916936265
  C         2.9923108223        2.0011061507       18.6017032523
  H        12.5015224482        3.6472191811       23.1551923078
  H        13.6624058683        4.0073824673       22.0740419022
  C        14.3238182112        2.4756846798       23.3418674022
  S         9.6597494560       10.1572122843       17.1627829917
  N        10.1873519971        9.6530686958       15.7034846732
  C        10.5603986075        7.5321691863       14.6126076765
  H        10.7912246482        5.4502782821       13.8625761801
  C         4.4218329633        1.1033891281       35.9631868627
  N         4.4174020592       -0.2655807364       35.9907372936
  O         4.5573113938       -2.1047167864       34.6487985418
  H         2.4329709175        2.8985657473       18.4188641842
  H         3.0581194316        1.6708913810       19.6354604708
  C         2.3521965739        0.7650856705       17.8453785265
  H        14.5958546139        3.0054286786       24.1935619571
  H        13.9836080358        1.4783839428       23.6224143295
  C        15.6549681648        2.3155209571       22.5555426464
  C        10.9154543750        8.2954207513       13.3904760445
  S         4.3673669853        1.9599018980       37.4969608157
  C         4.3371550544       -1.0689531017       37.2091624287
  H         1.2904672443        0.5392137609       18.1724816933
  H         2.1322726576        1.0795349657       16.8218005713
  C         3.0443789410       -0.6035643030       17.8402664743
  H        15.9098436429        3.1060451337       21.9173798301
  H        15.5957860146        1.4906974053       21.7907190037
  C        16.8392190433        2.0265082756       23.4154977204
  H        10.8864235539        9.3914657353       13.3926801270
  C        11.4859960909        7.8981939653       12.2136383656
  H         3.5861747208       -0.6643286752       37.8557780829
  H         3.9530700926       -2.1085044111       37.1094837550
  C         5.6260819362       -1.1357973473       38.0102683792
  H         2.9698087837       -0.9910261801       18.8502310588
  H         4.0850327247       -0.5308602970       17.4504237237
  C         2.1936869831       -1.5974924243       17.0087645490
  H        17.0443944208        2.8196943245       24.1409237816
  H        16.5725889136        1.1667990336       24.0502749414
  C        18.1654680605        1.9803680279       22.5675889098
  S        12.0111287874        6.3434639780       11.8208945974
  C        11.6124411750        8.9147903098       11.0780028473
  H         5.6619191139       -0.2938713777       38.6245387026
  H         5.6300073883       -1.9962615101       38.7406346086
  H         6.6025323565       -1.2624765252       37.3718080918
  H         1.1135601931       -1.5250888062       17.0446813706
  H         2.5603857919       -2.5297888348       17.3623748974
  H         2.4330077512       -1.4780493132       15.9154535657
  H        18.8165559697        1.2879454445       23.0211204437
  H        18.7188157342        2.8652530095       22.3377544913
  H        18.0700047998        1.4852110690       21.5761222890
  C        12.3094251350        6.9006058264       10.2057505093
  N        12.2702417125        8.3125167000       10.1293104368
  O        11.3653318047       10.1093119179       11.2313168343
  S        13.1274303166        6.0217038659        8.8073069399
  C        12.4419464263        9.0208442010        8.9231729532
  H        12.5962387056       10.0641291332        9.1637802618
  H        13.2678784066        8.7162705996        8.2737994187
  C        11.1446835208        8.9767601200        8.1428989572
  H        10.6769229770        8.0256191206        8.5412035148
  H        10.4947995364        9.7467576807        8.3631715824
  H        11.2678506773        8.8232790094        7.1619559674
  H        -3.1663256985       14.5774617410       16.2225240001
  C        -3.2152477756       13.5087011163       16.2409241770
  H        -4.3110531364       13.1728282295       16.4465919814
  C        -2.3222170215       13.1155408174       17.4476115466
  C        -2.7391653613       12.9461590621       14.8658811277
  C        -2.8634555102       13.3469964294       18.8223135234
  H        -2.1245470977       12.0341222236       17.5581706169
  H        -1.3610297420       13.6302995688       17.2458051364
  H        -2.8463052565       11.8089555856       14.8273339907
  H        -3.2666991589       13.3629067180       14.0313156980
  H        -1.7519253250       13.2986535812       14.6912654980
  C        -1.7881421018       13.4107893386       19.9153362252
  H        -3.6753003749       12.6522045798       19.0792407708
  H        -3.2651838463       14.3296533113       18.7767788380
  C        -2.3453738734       13.2458621144       21.3428108981
  H        -0.9792411313       12.6847724993       19.8375450348
  H        -1.3167816369       14.3994951508       19.8169243273
  C        -1.2747094513       12.7828945927       22.3273174093
  H        -3.2706698046       12.5780002443       21.4045616106
  H        -2.7653534978       14.1474743686       21.6854805131
  C        -0.0362273544       13.6321603604       22.5137705693
  H        -1.7224416153       12.7345289364       23.3315954824
  H        -0.9903704690       11.7654713436       22.0990413187
  C         1.1498163241       12.9867588693       23.2948553135
  H         0.2742873232       13.8678846328       21.5029327437
  H        -0.4276781757       14.5762742178       23.0362571476
  C         1.5394883335       11.6896213281       22.6248850175
  C         0.5911504016       12.1869976877       24.4283943208
  C         2.4842932302       13.8265941328       23.3210067393
  C         1.3086220048       10.5805026351       23.3838676394
  C         2.0637624340       11.3776046077       21.4027038207
  C         0.7310404460       10.8562001083       24.6079021903
  C         0.0962084267       12.9471847949       25.5413898532
  H         2.9242127611       14.1025494889       22.3487236285
  H         2.2200968886       14.7988577542       23.7018046101
  C         3.5159205016       13.2254503267       24.1866261670
  S         1.9300238931        9.1188501041       22.6464804761
  C         2.2000709876       10.0585008477       21.1868241747
  H         2.3069186344       12.2049895562       20.7567372374
  C         0.3513757719       10.2563120754       25.7755706418
  H         0.0790978596       14.0273514256       25.5328602096
  C        -0.2437877172       12.3251601652       26.7470401340
  H         3.7978922119       12.2719771635       23.7911426297
  H         3.1047733488       12.8143019646       25.1149254795
  C         4.6333597342       14.2472943807       24.3636578342
  C         2.6545537365        9.3772354821       19.9120435680
  C        -0.1036708740       10.9698792093       26.8904903352
  H         0.3675154430        9.2508676575       25.8203452800
  C        -0.6498005379       12.6803721342       28.0002327387
  H         5.2717565529       13.8617380195       25.1837389443
  H         4.3879691468       15.3126605432       24.7151018381
  C         5.4434284744       14.4642276904       23.0008573522
  C         2.5621098270        8.0138912042       19.6145483765
  C         3.0685140167       10.2387378020       18.7362697945
  C        -0.5603593151       10.2801365009       28.1382073895
  C        -0.8342836148       11.6103234311       28.8235053187
  S        -0.8960172149       14.2302549230       28.7212358214
  H         6.2494189275       15.1823612276       23.2244529212
  H         4.8124578642       15.0273313340       22.3478673987
  C         5.9380671619       13.1619648247       22.3875397838
  N         2.2709524692        7.0863302717       20.6400178576
  C         2.8520120090        7.3663688478       18.4628687660
  C         3.2001571654        9.6390784775       17.4852035080
  H         3.3126526734       11.3031911755       18.7711182931
  C         0.5636361555        9.4363123977       28.8365913402
  C        -1.7890200409        9.4133726207       27.8897664793
  C        -1.3131424086       12.0351917248       30.0306786976
  C        -1.3356509917       13.4011854181       30.1532282001
  H         6.4122809065       12.5591338920       23.2584953041
  H         5.0628078911       12.6920304958       21.9837144564
  C         6.9027413734       13.3827602774       21.2799998435
  S         2.2707154927        5.5393174998       20.0557674982
  N         2.7426168025        5.9428528908       18.4935307496
  C         3.1596465262        8.1648731583       17.3040327853
  H         3.4217810135       10.2447490794       16.6035120601
  H         0.9407166210        8.7187982531       28.1092371866
  H         0.1329117669        8.9193472040       29.7183495598
  C         1.7218255627       10.2912745430       29.3016133906
  H        -1.5388879935        8.5963153309       27.1844328993
  H        -2.0711695952        9.1036538570       28.8833978111
  C        -2.9409887558       10.1501797442       27.1737271830
  H        -1.5179238020       11.2533600046       30.6865390283
  C        -1.5338756764       14.1358929472       31.4275609320
  H         7.6849614977       12.6390802904       21.3742082646
  H         7.3182956415       14.3752512161       21.3461021540
  C         6.2826021617       13.2253917026       19.9154262102
  C         3.3232765944        7.5347063102       16.0324170618
  H         2.0418044851       10.9743182309       28.4823338983
  H         1.4192725318       10.9852856650       30.0910476486
  C         2.9744020121        9.5108128184       29.7164805477
  H        -2.4402784453       10.6101600794       26.2216898280
  H        -3.2891122568       11.0081460856       27.7768732339
  C        -4.1026310585        9.2707279607       26.8161453725
  C        -1.6576367944       15.5253374042       31.6264119829
  C        -1.7660341102       13.3054966219       32.6298318966
  H         5.7505085460       12.2907984933       19.7716971924
  H         5.6185897382       14.0293306144       19.6547757746
  C         7.3192640981       13.4407139172       18.7482312081
  H         3.1359745567        6.4967708809       16.1204845240
  C         3.6143444345        7.8973323994       14.7582688525
  H         3.2286291788        8.8054962852       28.8745331927
  H         2.6774216055        8.8200026178       30.5467436649
  C         4.1873245131       10.3570039468       30.1368894296
  H        -3.6905360882        8.4736845609       26.2429658733
  H        -4.5685177871        8.7245179789       27.5930162053
  C        -5.2516814568       10.0656696318       26.1055989428
  N        -1.4826025416       16.4567368028       30.6292344365
  C        -1.9396826398       16.1054261002       32.8657906219
  C        -2.0187847402       13.9307984426       33.8601972941
  H        -1.7255938096       12.2099675670       32.6614630339
  H         6.8404116213       13.0251697687       17.8348951450
  H         7.5046025679       14.5040460966       18.7191976054
  H         8.2389211654       12.9500617741       18.9303459040
  S         3.9667559165        9.5097228493       14.2800797870
  C         3.6684358045        6.8596920679       13.7068109706
  H         4.3336165740       11.1570597977       29.3793238486
  H         4.0166282150       10.8770057385       31.0274532511
  C         5.5142326759        9.5127440846       30.1993746278
  H        -5.6929511480        9.3733089363       25.3364065798
  H        -4.7692990538       10.8496268768       25.4917696570
  C        -6.2650279587       10.6709943396       27.0111866525
  S        -1.7227170370       17.9428287175       31.1710242902
  N        -1.9229349185       17.5017041790       32.7486466892
  C        -2.1089149072       15.3717255093       34.0182875632
  H        -2.1241527443       13.3900544237       34.7640525791
  C         4.1038356703        8.7766090393       12.6562420564
  N         4.0540624271        7.4337998900       12.5651519247
  O         3.3382453850        5.6744528102       13.8456633311
  H         6.4135650596       10.1032087070       30.3677486212
  H         5.7388005905        9.1222700179       29.2364278492
  C         5.4226045361        8.3145154059       31.1790486711
  H        -6.4091963352       10.0535593669       27.9123863688
  H        -5.9662793375       11.6297671614       27.3095671576
  C        -7.6246004707       10.8390493298       26.3399248917
  C        -2.3756526594       16.1161119805       35.1906921998
  S         4.5722685569        9.6494850508       11.3084654557
  C         4.1292095685        6.7235436901       11.3382370497
  H         6.2705756112        8.4829657539       31.7888097188
  H         4.5307774020        8.4101958471       31.8008921133
  C         5.3925937157        6.9145411045       30.5187640625
  H        -7.5208404065       11.3615927849       25.4043611403
  H        -8.2937495141       11.5302495698       26.8876536721
  C        -8.3166611171        9.5703833574       26.0083376976
  H        -1.9974182780       17.0965457887       35.1616737408
  C        -2.8470107615       15.7430747334       36.4455491790
  H         4.7374151074        7.1309847327       10.5280307823
  H         4.6618178051        5.7946891746       11.5126820700
  C         2.7146386616        6.4947501926       10.6893590439
  H         4.4795829180        6.8450935485       29.8357434762
  H         5.2052747013        6.1223833650       31.1957234533
  C         6.7426355577        6.5795030500       29.8315094073
  H        -7.8234418663        8.9119349899       25.2547925518
  H        -8.2817843477        8.9883442368       27.0234154067
  C        -9.7240834893        9.9190160722       25.4643361464
  S        -3.3789597144       14.2005581168       37.0081804714
  C        -2.9224761255       16.8276578694       37.3748911049
  H         2.4150263022        7.2500026804        9.9735877085
  H         2.6287318656        5.4814955295       10.3105123208
  H         2.0289303413        6.5688635364       11.5576138680
  H         7.4945100282        6.3933648707       30.5686470358
  H         7.1058384335        7.4405218605       29.2964833214
  H         6.4806483892        5.7215851062       29.1891220733
  H       -10.2498493012       10.7334093205       26.0398125480
  H       -10.4187402957        9.0339598381       25.4732646100
  H        -9.6468460970       10.3844932888       24.4705772273
  C        -3.7024294561       15.0378587598       38.5166758262
  N        -3.5506099666       16.3676535443       38.4811495549
  O        -2.6424603388       17.9911288919       37.1739947524
  S        -4.4311489471       14.3224441810       39.9588950614
  C        -3.6268599526       17.1998280792       39.6647223264
  H        -3.7953603873       18.1970938867       39.2463834799
  H        -4.5085232674       16.9945836138       40.3769547990
  C        -2.3089755766       17.1980895012       40.4642989523
  H        -2.2435020834       17.8946288233       41.2525820042
  H        -1.9502028009       16.2811156476       40.8225228173
  H        -1.5277834037       17.7210055724       39.8802291683
