352
 i =    56600, time =    56600.000, E =        25.2731129898
  H        12.3571485489        4.8925924307       32.2273379082
  C        11.4341805868        5.5050881775       32.1058041331
  H        10.7449586420        4.7059403386       31.8420103932
  C        11.5872627379        6.6142138901       31.0085328457
  C        10.9728841216        6.0828081273       33.4374910858
  C        11.9593051772        5.8830044155       29.7309853634
  H        10.6651710193        7.1743541358       30.9869363428
  H        12.3161345727        7.3349747950       31.1575873738
  H        10.0282091841        6.6195141869       33.2917021701
  H        10.8835365371        5.2603191882       34.1688088471
  H        11.6589180113        6.7166110388       33.9188145890
  C        10.6946640122        5.5506939849       28.8664876093
  H        12.5004568319        4.9776931809       29.8373215926
  H        12.5625440098        6.5532083526       29.1866278291
  C        11.1532112189        5.2666817386       27.4072266348
  H        10.1081202952        4.7197689217       29.2403702167
  H        10.0091674146        6.3692490892       28.9181956550
  C         9.9290948080        4.8368733595       26.6240047445
  H        11.9019123873        4.4814015821       27.5440601557
  H        11.6973802022        6.1456804065       27.0018079510
  C         8.7647739432        5.7747325286       26.3624231684
  H        10.3084073347        4.6468623537       25.6014813694
  H         9.6396449257        3.8734524496       26.9510819268
  C         7.5018645655        5.0129977204       25.6658528794
  H         8.3545095734        6.1177569527       27.2960243298
  H         9.2324069380        6.5969932008       25.8406935479
  C         7.1392932108        3.6607141575       26.3366486911
  C         7.8804376966        4.2653839599       24.4216074355
  C         6.1297576533        5.8885767597       25.6021280535
  C         7.2467450240        2.5681119161       25.5038303529
  C         6.7451974599        3.2286296229       27.6430613828
  C         7.7742265198        2.9814229415       24.2823905911
  C         8.2382631524        4.9067852639       23.2050755319
  H         6.3110886558        6.7450339741       24.9753754072
  H         5.8781224936        6.1335254605       26.6236565857
  C         4.9688854612        5.0675279879       24.9656949983
  S         6.8280421188        1.0234557500       26.2639871830
  C         6.5457514725        1.8588700026       27.7619058925
  H         6.6142056197        3.9404004571       28.4472105756
  C         8.0432105906        2.4111992757       23.0897340356
  H         8.1317704994        5.9716361743       23.2485948484
  C         8.5751587237        4.3627436721       21.9894468411
  H         5.3197080433        4.6230850342       24.0053831653
  H         4.7415512685        4.1760498640       25.4898319631
  C         3.6590964868        5.8407712444       24.5913708636
  C         5.9663469033        1.1132738873       28.9810942324
  C         8.5213168638        3.0530453745       21.9280445408
  H         8.1407768774        1.2675344982       23.0565319882
  C         8.9814259785        4.6994380349       20.7024192772
  H         3.2169167495        5.2807026737       23.7622603545
  H         3.9620447986        6.7129777084       24.1467206297
  C         2.7333882472        6.1478793642       25.7464246702
  C         5.8678139880       -0.2792820153       29.1721417904
  C         5.5392942946        1.8682583897       30.1382199283
  C         8.8253710564        2.2986488525       20.6103576853
  C         9.1293833982        3.6245000428       19.8573369560
  S         9.1970135051        6.1858588660       19.9562661918
  H         2.0475580414        6.9184563073       25.3331839925
  H         3.2279123368        6.6579437531       26.5555823479
  C         1.9622031196        4.9313772611       26.2777159246
  N         6.4135448244       -1.2383084490       28.2568225306
  C         5.6204687468       -0.8440657324       30.4022537746
  C         5.1105664360        1.3597199157       31.3468872741
  H         5.5105316003        2.9669624537       30.0114362868
  C         7.5831720603        1.4588005497       20.1364326749
  C        10.0870429091        1.3859467906       20.7937906492
  C         9.5530517111        4.0217269713       18.5473014355
  C         9.5213093959        5.3803719684       18.4154526182
  H         1.2389098676        4.5584746696       25.6157808818
  H         2.6217136269        4.1267350893       26.4494871449
  C         1.3343530048        5.1634037259       27.6392571731
  S         6.4360390988       -2.7366132232       28.9555029633
  N         5.6300225234       -2.2674065736       30.3287592330
  C         5.3125566536       -0.0610213339       31.5843731008
  H         4.7800141332        2.0111990877       32.1466923306
  H         7.2606701941        0.7165552110       20.8209295465
  H         7.9705738520        0.8642453378       19.2896105801
  C         6.4188784952        2.2758738666       19.4753966594
  H        10.4765574192        1.0739784804       19.7779775401
  H         9.7088802883        0.5326044047       21.2512466315
  C        11.0775301382        2.0522767843       21.7328175942
  H         9.7460360476        3.3494395048       17.7185583821
  C         9.7787893570        6.1366382297       17.1293832927
  H         0.3762084040        4.6439472005       27.6083508569
  H         1.1252290950        6.2364848810       27.6315701190
  C         2.3464118083        4.8557228531       28.7485498272
  C         5.0344978701       -0.7067967645       32.8665981612
  H         6.7696258353        2.5960010493       18.4506179142
  H         6.2711553859        3.1299021153       20.1078623692
  C         5.2264073634        1.3505676590       19.3035105379
  H        10.7757491149        2.0258153710       22.7752780869
  H        11.2987320278        3.1204700242       21.5193968551
  C        12.3514794835        1.1843173657       21.6752919184
  C         9.8231466153        7.5514804542       17.0072083909
  C         9.9932927799        5.3663559192       15.8680836120
  H         2.7367752637        3.8626659349       28.7473014074
  H         3.1756380514        5.5712568570       28.6834517598
  C         1.6030503981        4.9901869020       30.0838106423
  H         5.3999717264       -1.6954748880       32.8117647118
  C         5.0074809130       -0.2754476948       34.1831475622
  H         4.9518180611        1.0312991256       20.2937892695
  H         5.5077278423        0.4875638898       18.6632022995
  C         4.0292323572        1.9772760154       18.6079973320
  H        12.2819405406        0.4545938976       22.4407066295
  H        12.3610111553        0.8280280880       20.6923696879
  C        13.7063322664        2.0076639598       21.7825943729
  N         9.6641710326        8.5083898571       18.0979338072
  C        10.0808247345        8.1868007478       15.8189386320
  C        10.3847109492        5.9954637111       14.7043470385
  H        10.0673412314        4.3006387288       15.8797554186
  H         0.8337969162        4.3034657854       30.1348090491
  H         2.3028952666        4.8202642983       30.8750988124
  H         1.1627259134        5.9316680804       30.2980811267
  S         4.6833762786        1.3396423590       34.7755657636
  C         4.9784831172       -1.3405517526       35.1588485553
  H         3.6825492625        3.0112814722       18.9543447416
  H         4.5289081981        1.9521560375       17.5654205147
  C         2.8126565726        0.9502802871       18.6324452979
  H        13.6964394519        2.9407345004       21.1979260005
  H        14.4191305058        1.4411864953       21.1369878198
  C        14.4004974294        2.3094856426       23.0941950096
  S         9.7488935940       10.0379261420       17.4510472204
  N        10.0349176683        9.5481552325       15.8763134710
  C        10.4693638118        7.4993785410       14.6488183960
  H        10.7660056239        5.4507392808       13.9505027449
  C         4.5534486649        0.6006725692       36.4141559741
  N         4.7870310179       -0.7333346293       36.3852532529
  O         5.3322523843       -2.5145437173       34.9208314888
  H         1.9827305188        1.5974304068       19.0055710882
  H         2.9340561532        0.1540673244       19.3965554593
  C         2.4430953110        0.4603789670       17.2782131622
  H        13.8354547034        3.1674697313       23.4218147030
  H        14.3147713189        1.5989421354       23.9021027424
  C        15.8440560418        2.8137433311       22.9347904342
  C        10.7431753092        8.2957066631       13.4382631432
  S         3.9792206833        1.4510419794       37.7301740466
  C         4.8060112558       -1.6060021420       37.6124557546
  H         2.1021629397        1.3096934574       16.6495557999
  H         3.2334805475       -0.0734775859       16.6470490542
  C         1.3422795509       -0.5774345588       17.4712065545
  H        16.1697583265        3.3573407647       23.8152671670
  H        15.7824359512        3.5966094320       22.1741582528
  C        16.7992837294        1.6124114522       22.6914884993
  H        10.5088239291        9.3783854346       13.4633629957
  C        11.2504580315        7.9374928209       12.2231952824
  H         4.0926689520       -1.1302043537       38.3079438064
  H         4.2849167816       -2.5112889826       37.3080574202
  C         6.1723401684       -1.6755800954       38.1322922426
  H         0.6963254771       -0.5329574879       16.6111821237
  H         0.7376563469       -0.4827026502       18.3644521650
  C         1.9423934982       -2.0048893183       17.3901028161
  H        16.6516395881        0.7574506136       23.3965170547
  H        16.5660949306        1.1021393830       21.7530337314
  C        18.2496419244        1.9738658194       22.6642235339
  S        11.8401920550        6.4252710562       11.7787357431
  C        11.2683152305        8.9964325325       11.2101370027
  H         6.5805243419       -2.5941300053       37.6847397179
  H         6.8179491943       -0.8615452537       37.8804608511
  H         6.2292423961       -1.8557236673       39.2208003349
  H         2.9098821695       -2.0538614108       17.8934075646
  H         1.9575663640       -2.3097595409       16.3773761706
  H         1.2823457063       -2.6774267822       17.9423535690
  H        18.4186262099        2.9517415409       22.3273515074
  H        18.7998379322        1.3633984701       22.0218915791
  H        18.6334221418        1.9563642141       23.7454742297
  C        12.2812813319        7.1790416722       10.2476625175
  N        11.9779260529        8.5575872399       10.1836316981
  O        10.9853102934       10.2020469065       11.3986214283
  S        13.0819292502        6.3606395877        8.9387617166
  C        12.2273896117        9.4678738404        9.0243614932
  H        12.6417194083       10.4577073682        9.4859660554
  H        13.0090918785        9.1045767078        8.2819445914
  C        10.9761549299        9.7264468662        8.2075128296
  H        10.7106268192        8.8080100732        7.6497064260
  H        10.2212124449       10.1171162208        8.8957071334
  H        11.1907420191       10.4941937242        7.4815946995
  H        -2.6805098318       12.6365548081       17.4596910256
  C        -2.3606275184       13.6012936755       17.2612941567
  H        -1.3152233538       13.5955517571       17.4326962068
  C        -3.0626755038       14.4154203006       18.3458090248
  C        -2.7116163768       13.8521502398       15.8071699514
  C        -3.2832488623       13.4905521847       19.5606904791
  H        -2.3992361658       15.2651030258       18.5429533059
  H        -4.0105624941       14.7860327574       17.9018296592
  H        -2.3201902759       13.0488549426       15.2176010647
  H        -3.7821377086       13.9617450788       15.7191595218
  H        -2.1978244684       14.7413544376       15.4980653908
  C        -2.0674233988       12.9280689388       20.2208284193
  H        -3.8211682862       12.6356823079       19.1880241663
  H        -3.9432592641       13.9318509539       20.2128745818
  C        -2.1951394664       13.1083789038       21.7150832070
  H        -1.8648234744       11.9212065835       19.8587567593
  H        -1.2616900500       13.5658178527       19.8935278228
  C        -1.0684731737       12.4761284823       22.4786694752
  H        -3.1122869320       12.6067256943       22.0310025056
  H        -2.4611285233       14.1697803016       21.9449340270
  C         0.1229470674       13.3798882629       22.6116831524
  H        -1.3907669242       12.2418700622       23.4423609601
  H        -0.9607453796       11.4977312793       22.1260885479
  C         1.3208229868       12.7142050930       23.4029724657
  H         0.4120893430       13.7648211329       21.6093323823
  H        -0.1305316634       14.2170034978       23.2175726455
  C         1.6780740497       11.3544781299       22.7102381767
  C         0.9843036705       11.9555457996       24.6848151447
  C         2.5841504527       13.6543912161       23.5672991280
  C         1.5000947239       10.2539030980       23.5421775863
  C         2.2455322082       11.0530701272       21.5065386139
  C         0.9848635739       10.5999938813       24.8076676263
  C         0.5339721934       12.6667872285       25.8287223101
  H         2.7362961192       14.0946790244       22.6792366159
  H         2.3746205302       14.3951142868       24.3828787407
  C         3.8739500010       12.9656598099       24.0029270573
  S         1.6870431627        8.8115174085       22.6012096201
  C         2.2575603449        9.7123085259       21.2591452787
  H         2.3002059489       11.8693459059       20.7796820796
  C         0.7075714311       10.0484246636       26.0247926952
  H         0.5291455010       13.7560000482       25.8215921351
  C         0.1449210482       12.0808614241       27.0001674101
  H         4.0708530696       12.2004492169       23.2452095658
  H         3.7157736318       12.4092838583       24.9039406544
  C         5.0883939190       13.8970551279       24.1040007250
  C         2.5008125250        9.0416063855       19.9562815405
  C         0.2396989230       10.7240762307       27.1042672580
  H         0.7243419120        8.9639657164       26.0028296556
  C        -0.3433567997       12.4995588868       28.2217094545
  H         5.8121644923       13.3338072892       24.7704033163
  H         4.8275679251       14.8896165570       24.5897133810
  C         5.8493915882       14.2507321986       22.7910869270
  C         2.4265228440        7.6529573796       19.6544652866
  C         2.8825382848        9.9167102633       18.7953599093
  C        -0.2815915986       10.0503414221       28.3505244348
  C        -0.5428605196       11.4031158235       29.0663921232
  S        -0.8211270565       14.0034941955       28.9376036826
  H         6.7007791227       14.8867903804       23.0942577068
  H         5.1777420220       14.7765540143       22.0641140997
  C         6.4848577887       13.0484155692       22.1594191555
  N         2.2268542971        6.6665475254       20.5816644873
  C         2.6452159633        7.1344325951       18.3337959908
  C         3.0723572588        9.4082235145       17.5353697150
  H         3.0125810211       11.0234908423       18.9350100015
  C         0.8006584724        9.2032402694       29.1226340434
  C        -1.6738075150        9.2733454210       28.0986439706
  C        -1.0680786824       11.8430826251       30.3173237997
  C        -1.2034020812       13.2302575415       30.4044976499
  H         7.1789709382       12.6225881963       22.8791173401
  H         5.7139866811       12.2845552505       21.9107813485
  C         7.1608595647       13.2641670317       20.7962423395
  S         2.4440381112        5.1757649799       19.7915830075
  N         2.7257212856        5.7128701069       18.3017200329
  C         2.9708357710        7.9466544698       17.1850075869
  H         3.4150945114       10.0465447101       16.7515223583
  H         1.2720358530        8.4463269372       28.5180292416
  H         0.2193131353        8.7359231221       29.8681646272
  C         1.9954621646       10.0094693803       29.6606336623
  H        -1.5730566374        8.4642940349       27.3543355748
  H        -1.9384550606        8.6845347387       29.0165193612
  C        -2.7674285415       10.1801902921       27.5926735142
  H        -1.2142396329       11.1202489442       31.0831927825
  C        -1.5713714025       14.0250110332       31.5782996363
  H         7.7301367168       12.3716322259       20.5368206109
  H         7.8545234555       14.1747904382       20.8151930014
  C         6.0746533181       13.2513687048       19.6722101584
  C         3.1046215125        7.3172170257       15.9067021290
  H         2.1797531479       10.9215375292       29.0186179728
  H         1.6793895896       10.4962112093       30.6124055393
  C         3.2285801821        9.1130961149       29.8852773438
  H        -2.4788656231       10.6589525096       26.7208626307
  H        -3.0263750645       11.0088075540       28.3326576720
  C        -4.0124247572        9.3721226055       27.2235890842
  C        -1.6648552144       15.4395417602       31.7096202963
  C        -1.8191744662       13.3311830756       32.8153963660
  H         5.6813362627       12.2454769067       19.6729566372
  H         5.2671793648       14.0258514429       19.8157876814
  C         6.7337731770       13.3913967670       18.3262581009
  H         2.7143146769        6.2882730593       15.8307736294
  C         3.5460826405        7.8873879041       14.7205030139
  H         3.6470327387        8.8006435654       28.9470542872
  H         2.8073516666        8.2333461955       30.2562307920
  C         4.3176191930        9.8882785905       30.6648455548
  H        -3.6956960720        8.8193171978       26.3292863983
  H        -4.2335785538        8.8064375613       28.0852519672
  C        -5.2819558907       10.2409986178       26.9234112515
  N        -1.5180410696       16.2572296679       30.6241027455
  C        -1.9084530065       16.1091006657       32.9148526400
  C        -2.0411761839       13.9828608125       34.0073282643
  H        -1.8051114892       12.2633454634       32.7851169713
  H         6.1982709454       13.0124911044       17.5064432998
  H         6.9185340828       14.4059167405       18.0934301970
  H         7.7406060927       12.9452381629       18.1953879940
  S         4.0711351564        9.4828689964       14.3902562022
  C         3.5838521097        6.9202956186       13.5493355895
  H         4.3526610993       10.8453193209       30.1879429945
  H         4.0379606310       10.1466692739       31.7014100843
  C         5.5960411426        9.0643800340       30.7259445768
  H        -5.0840120514       11.1097149359       26.1790909126
  H        -5.7303905631       10.7017130869       27.8272111229
  C        -6.4130243193        9.4097561311       26.2745795497
  S        -1.4960010684       17.8035612847       31.2539251707
  N        -1.8960850397       17.4787741704       32.7675202638
  C        -2.1322687821       15.4280351877       34.1173391850
  H        -2.2942669809       13.4142253938       34.8693628431
  C         4.1146183780        9.0118956121       12.7210065552
  N         3.9978464327        7.6813838101       12.4771733405
  O         3.3058861062        5.7327273730       13.6817880869
  H         6.2996020853        9.7019915395       31.1470141391
  H         5.9268922467        8.7756748793       29.6562525071
  C         5.3290200605        7.7256518276       31.3666729602
  H        -6.0069005450        9.1302826596       25.3274663025
  H        -6.6875035918        8.6013885969       26.9224024671
  C        -7.5496998377       10.3435159496       25.9606423628
  C        -2.3945601782       16.1571111286       35.3329246800
  S         4.4993668741       10.0013014789       11.2522657254
  C         4.1190504339        7.1072301273       11.1840342563
  H         4.9536895786        8.0501201206       32.3720621701
  H         4.5216318202        7.1385606398       30.9681018258
  C         6.5496174810        6.7389378312       31.4280317920
  H        -7.2633429583       11.2398185926       25.3757171952
  H        -8.0476261137       10.6900553670       26.8085787709
  C        -8.6330026486        9.6509064374       25.1580173362
  H        -2.1819812197       17.1811927834       35.2315745200
  C        -2.8951764708       15.7827099373       36.5789150406
  H         5.0321717255        7.3932862421       10.6418607031
  H         4.3167258917        6.0886085681       11.5381241883
  C         2.8878076415        7.1962981775       10.3118402782
  H         6.2222727710        5.7618618134       31.8024272585
  H         7.2531210834        7.2596986655       32.1051001332
  C         7.2606869131        6.6401623204       30.0892979357
  H        -8.7332863084       10.1717008508       24.1971815232
  H        -8.3209159571        8.6484756891       24.9461415431
  C        -9.8665522712        9.6400986279       26.0618745815
  S        -3.5669284414       14.3270206131       36.9152991642
  C        -3.1180958448       16.8438824313       37.5629053223
  H         2.1842082935        6.3567018061       10.4085841159
  H         2.3309597237        7.9243713738       10.8184746195
  H         2.9605185794        7.4818649765        9.3110270729
  H         6.6126615120        6.3061070762       29.3168031523
  H         8.0373086952        5.9031669836       30.0253051903
  H         7.7130311710        7.5466327839       29.6997105433
  H       -10.6867485332        9.1479751014       25.5757921025
  H       -10.3424215405       10.5491261068       26.3168986405
  H        -9.6690153102        9.2163115190       27.0546971605
  C        -4.0889444094       14.9705695100       38.4777652648
  N        -3.7810064417       16.2979429112       38.6360576271
  O        -2.6524670712       17.9736586973       37.4870440133
  S        -4.5923089023       14.0353545352       39.8640262951
  C        -3.7753242397       17.0472456829       39.9203330258
  H        -3.9240632728       18.1270135350       39.6881550052
  H        -4.6378164128       16.8526725042       40.5921008749
  C        -2.4217104223       16.8680401789       40.5574253799
  H        -2.2457647158       15.8050904373       40.5708626796
  H        -1.5484593004       17.2817893793       40.0892448764
  H        -2.4532291916       17.2982393988       41.5478593662
