352
 i =    86000, time =    86000.000, E =        25.1236310680
  H         9.9957810603        6.4968340311       32.2053095904
  C        11.0761763275        6.6315543354       32.2498935553
  H        11.2156823179        7.7040317709       32.3451465058
  C        11.7567502331        6.3495737160       30.9680306650
  C        11.5205564828        5.9530235258       33.5221726680
  C        11.0828871346        5.2117620712       30.1575342340
  H        11.6891313281        7.1992584984       30.3578961642
  H        12.7940879402        6.0858466529       31.0978887793
  H        10.6360913644        5.5967037795       34.0466993806
  H        12.1868164281        5.1204229440       33.2786040913
  H        12.0130169362        6.6701100212       34.1254184900
  C         9.8950308420        5.7596018088       29.4408779428
  H        10.8428366676        4.5591830912       30.9826701652
  H        11.7616784723        4.6828942513       29.4541761703
  C        10.1933862378        6.2384348565       27.9797713868
  H         9.0944588949        5.1193526904       29.3824646039
  H         9.5343903585        6.7224791157       29.9914526511
  C         9.4045112161        5.4581437303       26.9275147505
  H        11.2161731846        6.3286791074       27.8058013020
  H         9.7995354978        7.2060479248       28.0787171663
  C         8.3046276503        6.2141289403       26.1420533503
  H        10.1054978907        5.0483574899       26.2461337887
  H         9.1203574718        4.4931272917       27.4077149413
  C         7.3263837701        5.3732729419       25.3248414532
  H         7.8990110568        6.8966710302       26.8308076032
  H         8.7910845898        6.9401053014       25.5592700747
  C         7.0537079308        4.0303257098       26.0621640853
  C         7.9349083494        4.6161678643       24.2167547121
  C         5.9953609682        6.0198361682       24.8290143788
  C         7.5315306841        2.9536410029       25.3706630310
  C         6.4679542486        3.5898222696       27.2385681994
  C         8.0540759812        3.2831137553       24.1571954635
  C         8.5153908859        5.2670770339       23.1840790572
  H         5.5067089945        5.4095702994       24.1860508474
  H         6.2612837111        6.8716863364       24.2435277020
  C         5.0130606700        6.4895798480       25.9430730671
  S         7.3125201266        1.4086914678       26.1894465801
  C         6.5202392819        2.2266139998       27.5450457059
  H         6.0912371512        4.3691511619       27.8788677566
  C         8.4672677811        2.6301569371       23.0874582657
  H         8.4595628637        6.3833977414       23.2177724739
  C         8.9055824386        4.5772276945       22.0229959835
  H         5.1296902836        5.8371297995       26.8468876119
  H         5.2503750983        7.5246732575       26.2957313522
  C         3.4890782161        6.3568762525       25.5558150179
  C         6.2295567170        1.6433623583       28.8246559147
  C         8.8887212974        3.2305624211       21.9383128374
  H         8.5368979072        1.5691476434       23.1676914613
  C         9.2752118429        4.9815488998       20.7778930522
  H         3.3722441439        5.3076637289       25.1658352186
  H         3.3215164864        7.0521796994       24.7009460239
  C         2.5650603037        6.6677647596       26.6880613517
  C         6.1969014476        0.2922806076       29.1546024416
  C         5.8340662730        2.5647582312       29.9678933849
  C         9.3224671176        2.4614134618       20.6694238846
  C         9.4313773975        3.8377085619       19.9440609531
  S         9.5200957123        6.4833766545       19.9749619232
  H         1.6392598400        6.9553314176       26.1931741320
  H         3.0011454655        7.5251602599       27.2374908094
  C         2.2883321537        5.3918413109       27.5675412948
  N         6.4532012187       -0.7055556587       28.2332810226
  C         5.7935665106       -0.2262227153       30.3852278493
  C         5.4207880466        2.0668784362       31.1668575374
  H         5.7771620405        3.6360455178       29.7483679142
  C         8.1757503061        1.6061436573       20.0090419950
  C        10.6416403869        1.7641090133       20.9765979314
  C         9.7790517109        4.2959755932       18.6210324409
  C         9.9259840724        5.6557462088       18.5007836748
  H         2.0543099816        4.6203476716       26.7806580598
  H         3.1632679707        5.0515082235       28.0649207397
  C         1.1346773046        5.4820261656       28.5835330759
  S         6.4325833459       -2.1487937449       28.9145922898
  N         5.8634441802       -1.6159877450       30.3494022391
  C         5.3929244045        0.5990315299       31.4688356868
  H         4.9540884127        2.7341513052       31.8627886274
  H         7.8795071501        0.8450576893       20.7018409856
  H         8.5578147901        1.0792314051       19.1229555369
  C         6.9153679434        2.4320098120       19.7135107964
  H        10.9684630319        1.3921404908       20.0770697647
  H        10.3717842479        0.9547776149       21.6519298359
  C        11.7656583519        2.6604231359       21.4501143484
  H        10.1697718377        3.5688810749       17.9154077529
  C        10.3010278727        6.3947133219       17.1845666919
  H         0.7664325804        4.4389638483       28.9268427456
  H         0.2871028976        5.9315622055       28.1323628940
  C         1.5889180715        6.3174289136       29.8616274465
  C         5.0814930580        0.0098139627       32.7056164014
  H         7.0711424864        3.1919912569       18.9487520993
  H         6.6379201116        3.0428076714       20.5811155452
  C         5.6758332700        1.5280542923       19.3488590977
  H        11.5579254266        3.2534748028       22.2897504360
  H        12.0958471666        3.2897397477       20.5887490759
  C        13.0407618896        1.7819797142       21.7661945889
  C        10.3953639376        7.8091957276       16.9825119358
  C        10.4796289648        5.5239728347       15.9838851215
  H         1.8896748291        7.2837715503       29.5838991095
  H         0.7614260281        6.4301258577       30.5190109359
  C         2.6143936588        5.5444242276       30.7060833435
  H         5.3032623056       -1.0900807014       32.7728200484
  C         4.6806811213        0.4919256644       33.8908640866
  H         5.4607981346        1.0285217497       20.2572919385
  H         5.9396613450        0.8133591456       18.5677673338
  C         4.4110525614        2.3594616423       19.0409905132
  H        12.7103958351        0.9355846584       22.4777586289
  H        13.3197390392        1.2166834528       20.8796352140
  C        14.1617475330        2.5507756770       22.4001384864
  N        10.2322144542        8.7235430997       18.0108437185
  C        10.5786032660        8.3571143358       15.7215096487
  C        10.6321784594        6.1001094544       14.6887967672
  H        10.3383746365        4.4041784095       15.9720965610
  H         3.3255093431        6.2384547707       31.1253446239
  H         2.1019660258        5.0624950813       31.5095649066
  H         3.0418534355        4.8576265525       30.1109660713
  S         4.4203126293        2.1365597546       34.3299950894
  C         4.6249565079       -0.4684221748       35.0027972982
  H         4.4856637429        3.3562266931       19.5734975949
  H         4.5552900771        2.6856509264       18.0714620746
  C         3.1708198472        1.5183021330       18.9911811100
  H        13.7825523505        3.2378058986       23.1495853599
  H        14.5809643940        3.2813250054       21.6485874880
  C        15.3956352106        1.6760765739       22.8729867961
  S        10.3495643671       10.2312443419       17.3838457768
  N        10.6499900134        9.7676292986       15.8239922499
  C        10.7617940619        7.5917432282       14.5589221371
  H        10.7303805803        5.4829060957       13.8269206966
  C         4.4022044046        1.5086984103       36.0165315253
  N         4.2860855754        0.1298656760       36.1654013883
  O         4.8444761283       -1.6608778477       34.9906331802
  H         2.3797448328        2.2212039809       18.9201639884
  H         3.0627175479        1.1096673473       19.9899270125
  C         3.0746283055        0.5461344188       17.8371676339
  H        15.0969808938        0.9178277471       23.6045486748
  H        15.7463655427        1.0539573743       22.0781087676
  C        16.6187597355        2.4192155023       23.2741036998
  C        11.0188220386        8.3381228965       13.3310711354
  S         3.8891373030        2.5024833064       37.3362145981
  C         4.2579362502       -0.5421723131       37.4215232600
  H         2.1182638329        0.7735336403       17.4070666159
  H         3.8439004698        0.7693460122       17.0912826867
  C         2.9527859128       -0.8481417518       18.3824686396
  H        16.3795295036        2.9100392880       24.2404019984
  H        16.8361146840        3.2046390800       22.6088983507
  C        17.8897303699        1.5624296354       23.4788663616
  H        10.7834435124        9.3615562513       13.2905899462
  C        11.6007985975        7.9024427465       12.1217878846
  H         3.5674788774       -0.0847530531       38.0967313034
  H         3.8259526233       -1.5584649503       37.2923467693
  C         5.6235928580       -0.5952414754       38.0763046999
  H         1.9040304418       -0.9511228604       18.5305729985
  H         3.4820138786       -0.9605563243       19.3025405166
  C         3.3879785355       -1.8538183815       17.3002736333
  H        18.4274486546        2.1512071210       24.2061035407
  H        17.5828308208        0.6284546472       23.9047402701
  C        18.6551994575        1.4573059090       22.1527557856
  S        12.3508507103        6.4517209513       11.7178990016
  C        11.6800393699        9.0127786822       11.1302011195
  H         6.2391767774       -1.2985980402       37.5424161222
  H         6.1354066737        0.3694585321       38.1658106157
  H         5.4721872022       -1.0434824464       39.1171169098
  H         3.4128594591       -2.8559833910       17.6948279366
  H         4.2793692727       -1.6338262728       16.7583585116
  H         2.6024098426       -1.9116859576       16.5779781470
  H        19.5725368937        0.8757808048       22.3551171625
  H        19.0080355727        2.4188146176       21.8623716285
  H        17.9644627938        1.0015417844       21.4035206960
  C        12.6035261009        7.2200510280       10.1255224048
  N        12.2907335036        8.5414966925       10.0148613746
  O        11.3514977796       10.1978537454       11.3769309306
  S        13.7067570668        6.6242357214        8.9056574067
  C        12.5164527742        9.3028285075        8.7811856217
  H        12.7749871982       10.3488262500        8.9749618455
  H        13.3270947782        8.9829347368        8.1202963916
  C        11.2468886405        9.2680687289        7.9494523129
  H        10.4013059959        9.3073723490        8.6893410063
  H        11.2156072633       10.1631875910        7.2642705049
  H        11.3977851285        8.4163495302        7.2226840944
  H        -2.7001547019       15.2001882574       16.2591879361
  C        -2.5500007490       14.1208009451       16.4593121637
  H        -3.4080193704       13.7831157976       17.1400097677
  C        -1.2073781801       13.8329964985       17.0508155548
  C        -2.6909319583       13.6498973721       15.0320846106
  C        -1.2430778205       14.3855145035       18.4731538182
  H        -1.1553541329       12.7050526122       17.0738545621
  H        -0.4909965615       14.4083266382       16.5164040019
  H        -1.7157160314       13.5237554044       14.5732164042
  H        -2.9956512112       12.5978343405       15.0257180737
  H        -3.3704017397       14.1751698745       14.4168545980
  C        -1.5390294244       13.2510349451       19.4915108656
  H        -1.9949871615       15.1926644044       18.4403421185
  H        -0.2946932948       14.7861755184       18.7103956967
  C        -2.0287103720       13.9838313925       20.8800345874
  H        -2.3035271738       12.5170904320       19.1079081286
  H        -0.5639379840       12.7743998250       19.6512264933
  C        -1.1561013174       13.3734378036       22.0721604866
  H        -3.0754274053       13.7873266221       21.0958649873
  H        -1.8924572109       15.1053873261       20.9074156743
  C         0.1446726404       14.0601887251       22.3457042836
  H        -1.7234642399       13.2204354000       22.9963210917
  H        -0.9081961964       12.3262293449       21.8972150409
  C         1.2259654397       13.3074077905       23.2036568288
  H         0.5961802232       14.4227848714       21.3911103984
  H        -0.0951222900       15.0342589967       22.8512742124
  C         1.5276638577       11.9293094380       22.5275782299
  C         0.8094117421       12.6321934493       24.4805366367
  C         2.4942996688       14.1331102155       23.4192620242
  C         1.3622265984       10.8905022633       23.4356117364
  C         2.1331324902       11.5331989045       21.3220745276
  C         0.8153335880       11.3082143263       24.5856470606
  C         0.3594312898       13.3708713952       25.5851350690
  H         2.6551726465       14.8121882454       22.5379805670
  H         2.2236725972       14.7878008845       24.1426357299
  C         3.7848793443       13.4848711678       23.8515834087
  S         1.8956550831        9.3773915654       22.7984991886
  C         2.3771241670       10.1907352108       21.2595262136
  H         2.2128792493       12.2976063170       20.6204004709
  C         0.4637254723       10.7169770804       25.7907471564
  H         0.2452129440       14.3911656220       25.4917374359
  C         0.0911964121       12.8195247216       26.7888683430
  H         3.8884365770       12.5542087324       23.3295498628
  H         3.7271459556       13.2617126479       24.9108478231
  C         4.9729203846       14.3411595415       23.5487673003
  C         2.8585893416        9.4485359309       20.0892601206
  C         0.1249060141       11.4822189989       26.9227728698
  H         0.5278171870        9.6149824587       25.9166380836
  C        -0.3477509612       13.2394464284       28.0683721900
  H         5.8017922457       14.0787739356       24.2536982161
  H         4.7831831776       15.3378265163       23.7671801808
  C         5.5842445994       14.3452408666       22.1582232926
  C         2.7461888760        8.0580521542       19.8655706882
  C         3.4336930525       10.1725561259       18.9143050245
  C        -0.2746512726       10.8201142084       28.1957631026
  C        -0.6215087839       12.1254294885       28.8312041141
  S        -0.7844153451       14.7368203376       28.7386595814
  H         6.1974555718       15.2521751562       22.1920118199
  H         4.7281082626       14.4000571782       21.4351605113
  C         6.4227309941       13.0760777516       21.8329493140
  N         2.3476939614        7.1331775963       20.8466006553
  C         3.0365706889        7.4276879546       18.6860309451
  C         3.5844478813        9.5768396108       17.7106261406
  H         3.5853201350       11.2051101884       19.0476072485
  C         0.7253014826        9.9900001207       29.1126689570
  C        -1.5417562003        9.9787978487       27.9950230409
  C        -1.0340681644       12.5157142280       30.0944611126
  C        -1.1216577954       13.8993867043       30.2124297630
  H         7.0383209427       12.7959127110       22.6429197375
  H         5.6980846153       12.3130788772       21.6278182782
  C         7.4142215838       13.2931442352       20.6423533295
  S         2.3283582301        5.6550812769       20.2438480608
  N         2.7805197364        6.0349850199       18.7361750627
  C         3.4332704205        8.1135043169       17.5341013528
  H         3.8545176255       10.3377558965       16.9136891900
  H         1.0329380875        9.3051571695       28.3875181464
  H         0.2969003436        9.4083471682       29.9536640881
  C         2.0312718452       10.6094577016       29.5656937510
  H        -1.3177361055        9.2624692335       27.1845613099
  H        -1.8234899747        9.3363817800       28.8462366814
  C        -2.8307009142       10.8177660954       27.6957286167
  H        -1.2367898689       11.8308199323       30.8915879544
  C        -1.4285743852       14.5991185610       31.4767725026
  H         8.1035380935       12.4444964177       20.6346411120
  H         7.8854701093       14.2241846000       20.9737153747
  C         6.6477313340       13.3871338260       19.3455926529
  C         3.6338494578        7.4032785782       16.2995955728
  H         2.3209772237       11.2840683883       28.7334729222
  H         1.9327035772       11.2943765524       30.3992767025
  C         3.0698870164        9.6079949781       29.9674069410
  H        -2.7003300764       11.4151302326       26.7842839211
  H        -3.0086847272       11.5843736304       28.4336175748
  C        -3.9320026338        9.8063480631       27.6266784917
  C        -1.5430021234       16.0506667484       31.6194249738
  C        -1.7187235010       13.8212842557       32.6857091910
  H         6.3525653653       12.3853691645       19.0951645286
  H         5.7921337912       14.0831106118       19.4041125975
  C         7.4654415455       13.8158523162       18.1835189387
  H         3.4088699269        6.3748561817       16.3701924642
  C         3.9749028124        7.8471659479       15.0355631782
  H         3.3916398961        9.0368878838       29.1042198062
  H         2.6297315668        8.9025712036       30.6032712126
  C         4.2333087337       10.2812231151       30.7179886957
  H        -3.6717691763        9.0767188054       26.9022557914
  H        -4.1211606618        9.1613730198       28.5007834111
  C        -5.3981000070       10.2165531433       27.3176458589
  N        -1.2444641856       16.9529971173       30.6388446869
  C        -1.8598427492       16.5770356332       32.8302445732
  C        -2.0370035649       14.4114391732       33.8695455215
  H        -1.7490167057       12.7491256968       32.6688972495
  H         8.2523883800       14.4301307425       18.5856622799
  H         8.0373826988       13.0717792652       17.7240229722
  H         6.8648121865       14.3906248360       17.4095730699
  S         4.2584916227        9.4260894277       14.6191475353
  C         3.9252497749        6.9011475036       13.8503512096
  H         4.8347846442       11.0111486888       30.0911417987
  H         3.7449254479       10.7477952875       31.6534923178
  C         5.3165097991        9.2269666393       31.0549604753
  H        -5.6477598240       11.0760109421       27.9616642590
  H        -6.0975959561        9.4187015019       27.5585811418
  C        -5.6018720632       10.5532523070       25.8776668524
  S        -1.4144184388       18.4497786965       31.2691011319
  N        -1.8932374249       17.9621216029       32.7248056385
  C        -2.1347063264       15.8722385923       34.0154721533
  H        -2.3047845272       13.7793075820       34.7589448967
  C         4.5317046258        8.8925417367       12.9453059975
  N         4.3946239096        7.5163110406       12.7129310146
  O         3.6816469575        5.6845692900       14.0474384924
  H         4.8815455996        8.4692691510       31.6659381656
  H         6.0363677513        9.8610353628       31.6682026686
  C         6.1572473432        8.7474835048       29.9510450776
  H        -4.6663897074       11.0155175007       25.5151294014
  H        -5.7920595659        9.5936054369       25.3986844762
  C        -6.6241207563       11.6813420930       25.5343302175
  C        -2.4930565339       16.5342587442       35.2131484521
  S         4.8907130537        9.9673819291       11.5556355705
  C         4.4211889329        6.7310853200       11.4649248545
  H         5.7391767044        9.0932265101       28.9825217008
  H         7.1447605007        9.2390199413       30.1312571091
  C         6.1681494793        7.2111622656       29.9324169494
  H        -6.4473052721       12.1675927320       24.5175086542
  H        -6.1794817483       12.5623908548       26.1412374729
  C        -8.0665020364       11.3087119141       25.8880100765
  H        -2.0291951640       17.5329307214       35.3155510901
  C        -3.0034380250       16.0672130113       36.4141952251
  H         5.0078795340        7.1761067397       10.6953284887
  H         5.0123644097        5.8117827472       11.6462696707
  C         3.0206355443        6.2908263421       11.0023758784
  H         6.9627580623        6.9339719556       29.2795264402
  H         5.1935689362        6.7808128917       29.5587513154
  C         6.5575605154        6.6277704772       31.3647590967
  H        -8.1781274939       10.7607647659       26.8268792652
  H        -8.5325320748       12.2325606234       26.0217876405
  C        -8.8275886109       10.4221212519       24.8766843670
  S        -3.6526318860       14.5682227552       36.7618604367
  C        -2.9958536801       17.0644830897       37.5476456504
  H         3.0082479161        6.0314469952        9.9402840134
  H         2.6824129294        5.3848080893       11.5425113602
  H         2.3075280137        7.0543377980       11.1318520340
  H         7.3091104491        7.2055541662       31.8350565542
  H         6.8805804335        5.6076644934       31.2887267243
  H         5.7527023810        6.6250908192       32.0453776264
  H        -9.8272635828       10.7858966900       24.9927903819
  H        -8.6895213056        9.5166870278       25.3367709139
  H        -8.4902501237       10.3298637744       23.7887668902
  C        -3.8144151770       15.1700201493       38.4594353712
  N        -3.5735158418       16.4905262383       38.6240156217
  O        -2.4759488283       18.1594114917       37.6081730424
  S        -4.3797181042       14.1290635204       39.7951206734
  C        -3.7045308138       17.1180877342       39.9450848858
  H        -3.8770378679       18.1657102755       39.7275535485
  H        -4.5983662705       16.8542037077       40.4366464963
  C        -2.5048102982       16.8846841972       40.8504234095
  H        -2.7947737752       16.8264520431       41.9561731963
  H        -1.9607341691       15.9894644636       40.6978354017
  H        -1.8138464916       17.7439102823       40.7404597213
