352
 i =    34700, time =    34700.000, E =        24.4832511384
  H        11.5104504914        8.1048834982       32.2277973471
  C        11.4373897923        7.0080159261       32.1099610893
  H        12.3989104118        6.4615654438       32.0018314411
  C        10.4173761448        6.7309672805       30.9701479703
  C        10.9347820844        6.5343441281       33.4529559432
  C        11.0162763907        6.3646742376       29.6251045152
  H         9.5841879766        6.0539534884       31.2716206910
  H         9.9321226496        7.6901743178       30.7105511175
  H        11.8437900667        6.6021143947       34.0622543252
  H        10.0990207590        7.1248341873       33.8271835864
  H        10.6667000093        5.5034171931       33.4932272973
  C         9.8766555944        6.3917380668       28.5348255396
  H        11.5936905848        5.4596925444       29.7660951380
  H        11.6705482793        7.1304533464       29.3200005750
  C        10.4860142878        5.9272413536       27.2506084780
  H         8.9219402316        5.9350912109       28.8287054919
  H         9.6083473794        7.4299623674       28.4346889590
  C         9.5219630850        5.4502630851       26.2391232110
  H        11.3367179576        5.2706856793       27.4901191803
  H        10.9484598621        6.8104452926       26.8338887573
  C         8.3607039845        6.2449490053       25.8124343410
  H        10.0198822231        5.0547567489       25.3451166510
  H         9.1615132462        4.5862372579       26.7743091275
  C         7.2651240226        5.3446897561       25.1051964677
  H         7.9431374967        6.7655665047       26.6388218527
  H         8.7498971149        7.0306118996       25.1424530637
  C         6.9141019892        3.9518953648       25.8204246978
  C         7.7229008289        4.6202862894       23.9248329762
  C         5.9606632750        6.2423934731       25.0770722777
  C         7.2218372116        2.8795074187       25.0318756609
  C         6.3594554700        3.5803789310       27.0235988795
  C         7.7856181915        3.2771370046       23.8109265571
  C         8.1728714875        5.3384738195       22.8107989244
  H         6.0527192451        7.0824669478       24.2855791711
  H         5.8906259982        6.8384110831       25.9750227318
  C         4.6907114837        5.4548063974       24.7050709086
  S         6.9726529518        1.3770451197       25.7996886567
  C         6.2956503635        2.2284631293       27.1468714076
  H         6.0606626529        4.3528758850       27.7549701687
  C         8.2852331684        2.7265919363       22.6808813952
  H         8.1644020163        6.4402543213       22.9405627524
  C         8.6479835302        4.7530712135       21.6513741435
  H         4.9576317659        5.0887349364       23.7054908275
  H         4.4270731882        4.5633889262       25.3136497637
  C         3.4613939724        6.3844730164       24.6429804108
  C         5.9746358514        1.5431279468       28.4068828359
  C         8.6794631371        3.4166287147       21.5844971231
  H         8.3450891650        1.7157967658       22.4484674860
  C         9.1406787023        5.1033231960       20.4428194638
  H         2.7461993767        6.2604376401       23.8274359488
  H         3.7294158895        7.4071774193       24.5536449276
  C         2.6732264047        6.5060022061       25.9714641367
  C         6.0766726277        0.1517758454       28.6536830550
  C         5.5731867992        2.3837660704       29.5471672270
  C         9.0804460630        2.6695194014       20.3004486604
  C         9.3852946667        4.0203024158       19.5867692267
  S         9.4677127441        6.6306638622       19.6653554827
  H         1.8356976397        7.1913509449       25.8525222029
  H         3.3413388112        6.9965014577       26.7253720951
  C         2.1197300339        5.2087698022       26.6401167147
  N         6.4603819781       -0.7817925781       27.7012739321
  C         5.8036588578       -0.4429157441       29.8811104050
  C         5.2885782593        1.7597962792       30.7275255240
  H         5.4901732998        3.4592533605       29.5079735451
  C         7.8758278720        1.7882308885       19.7107676627
  C        10.2779261585        1.6796036422       20.4304675092
  C         9.9224231114        4.4175367656       18.3405947929
  C        10.0263873647        5.7469241900       18.2178637997
  H         1.5650520179        4.7574800795       25.7940164720
  H         2.8188195828        4.4584208191       26.9621700147
  C         1.0951780630        5.2938541836       27.7914831229
  S         6.5111164269       -2.2585869852       28.3846377978
  N         6.0391094911       -1.8252343371       29.8505240194
  C         5.2964506099        0.2663293424       30.9594715283
  H         5.0506150496        2.3462943057       31.5885450242
  H         7.6747877168        1.0413309839       20.4546969303
  H         8.2969895884        1.2631740526       18.8105888312
  C         6.6311188985        2.5076258431       19.3541098300
  H        10.4613208915        1.1543884375       19.4910125128
  H        10.0647778271        0.9283705842       21.2341733859
  C        11.5207337013        2.4061532972       20.8233427400
  H        10.2301772802        3.6231356608       17.6772037071
  C        10.3578390301        6.4262848784       16.9403239557
  H         0.6028299080        4.2875713212       27.9028385920
  H         0.3539601705        5.9749653707       27.5536231623
  C         1.6042777503        5.8469187072       29.1431042582
  C         5.0504589459       -0.3680923057       32.2242001568
  H         6.8921048624        3.1692940904       18.5013904004
  H         6.4432528489        3.2060318394       20.1139224917
  C         5.5995242595        1.4124811608       19.0339251737
  H        11.3459056221        2.9512519112       21.7866336619
  H        11.8080396701        3.1318133061       20.0781480407
  C        12.6987713701        1.5139094479       21.0579076162
  C        10.4426456667        7.8907779520       16.8352509582
  C        10.6087102241        5.6716347771       15.7062608253
  H         1.6154820339        6.9387917199       29.2028770608
  H         0.8415906134        5.5074356638       29.9064700520
  C         2.9799729044        5.3265051045       29.5921346662
  H         5.1740263520       -1.4435535510       32.2194066803
  C         4.7816923968        0.0386580146       33.5098933003
  H         5.0536092438        1.1725784334       19.9902332507
  H         6.0619278213        0.4065587313       18.8544884507
  C         4.6685760145        1.7726555128       17.8851384812
  H        12.5153053621        0.9344970686       21.9488086711
  H        12.7541877130        0.7188262123       20.2926151329
  C        14.0658024778        2.2247506680       21.0022078087
  N        10.0638259197        8.8119087501       17.8221723581
  C        10.8698649717        8.4431073371       15.6373592688
  C        10.8673148691        6.2936590532       14.5155120183
  H        10.3720660417        4.6043395246       15.6346402563
  H         3.2305274256        5.8090382101       30.5429954045
  H         3.0043803799        4.2552594624       29.6888200023
  H         3.7851005584        5.5273612989       28.8543274843
  S         4.6755692242        1.6855568497       33.9859035212
  C         4.5971398679       -1.0163119994       34.5632775405
  H         4.4853667538        2.8622199945       17.8349432393
  H         4.9887127061        1.4618106211       16.9445953385
  C         3.2836128481        1.1519939367       18.0519491680
  H        14.0358223126        3.0654133049       20.3659540148
  H        14.8653329227        1.5852746806       20.7240954588
  C        14.3341088839        2.8171796790       22.3570974962
  S        10.2933804748       10.2603496551       17.1595375944
  N        10.9313432007        9.8594131484       15.7449088007
  C        11.1723324464        7.7482306009       14.4456024261
  H        10.9976324369        5.7109048688       13.6475736534
  C         4.3423876766        0.9590402107       35.6154193065
  N         4.3259923598       -0.3569337849       35.7358621506
  O         4.7299781591       -2.2191235599       34.4052596868
  H         2.6762820339        1.8152145753       17.4301659835
  H         3.0820788940        1.2538327534       19.0854920649
  C         3.0951594028       -0.2562484763       17.4210184774
  H        14.9089222326        3.7181462932       22.4058353950
  H        13.4151123377        3.0432533886       22.7575481052
  C        15.0541140231        1.7537668825       23.2608229596
  C        11.4216278023        8.5220413271       13.2498715949
  S         4.1016724936        1.8600525900       37.1545186823
  C         4.2234210927       -1.1818166691       36.9739919353
  H         2.8898918330       -0.0361743984       16.3898489172
  H         4.0645641859       -0.8518367916       17.3820116110
  C         1.9961926608       -1.1566158007       17.9707128944
  H        15.2283484343        0.7919804473       22.7981204292
  H        14.3899950518        1.6747318381       24.0513252530
  C        16.4288988837        2.2327561318       23.9133557111
  H        10.8638667249        9.4532952384       13.1770223616
  C        12.0995145823        8.2174826674       12.0687810635
  H         3.4986457134       -0.8229236072       37.6597111566
  H         3.9760271957       -2.2030748929       36.7297135895
  C         5.6209802847       -1.3609600038       37.6797455373
  H         1.1295554627       -0.5235452303       17.7540241456
  H         2.0331337059       -1.1820692558       19.0828890550
  C         1.8742259719       -2.4998255377       17.3199735379
  H        16.3925051003        3.1661738589       24.4297021714
  H        16.5154453091        1.3997906133       24.5523019385
  C        17.5589321156        2.1813116987       22.8956340460
  S        12.7911085562        6.6554205971       11.7797110339
  C        12.0829196257        9.1901931871       11.0222399708
  H         5.4855286015       -2.1199626775       38.4143355938
  H         6.4308972256       -1.5474197289       36.9800687026
  H         5.7787863556       -0.4162402295       38.1559319052
  H         1.7906666068       -3.3835686130       17.9795925741
  H         2.8001675605       -2.6203021716       16.7527167623
  H         1.0917857719       -2.5164661866       16.5825941448
  H        18.4055860784        2.6365594324       23.3562203288
  H        17.3714176399        2.8003994575       22.0303718306
  H        17.7625843646        1.1843490383       22.5295320927
  C        13.0354041533        7.2848859396       10.0931907640
  N        12.8251147386        8.6344133832       10.0029124773
  O        11.7247364161       10.3445263437       11.0857163998
  S        13.9006274808        6.4721288441        8.7970282313
  C        12.8788915499        9.3478475748        8.7328518306
  H        13.1810365812       10.3429356312        8.8932861480
  H        13.6178825356        8.9526982858        8.0461567031
  C        11.4909168778        9.0954200204        8.1421039779
  H        11.0630688923        8.1379389728        8.4635476718
  H        10.7738840269        9.8720858357        8.4586239587
  H        11.6872617154        8.9675941201        7.0697024477
  H        -3.5784187412       14.7385481976       16.1923239743
  C        -2.8955936110       13.8430589647       16.0034062509
  H        -3.6575828163       13.0884401970       15.9695444297
  C        -1.9256422350       13.5222761088       17.1765138420
  C        -2.0829938155       13.7695946347       14.6946492068
  C        -2.6177288780       13.4774028855       18.5264713869
  H        -1.5899496981       12.5003781405       17.1009900849
  H        -1.0016128795       14.0951285136       17.1165470567
  H        -2.5032547556       13.1323637129       13.9173730288
  H        -2.0445995560       14.7432874874       14.3101626123
  H        -1.0439561119       13.4991230566       14.8955460744
  C        -1.6700295465       13.4983311352       19.6968950508
  H        -3.2342680611       12.5407191676       18.4404629856
  H        -3.3422075686       14.2415752232       18.6102108068
  C        -2.2234781970       12.9227549402       21.0200623858
  H        -0.7972443309       12.9303987270       19.4903088379
  H        -1.2402633981       14.5273826615       19.7769401953
  C        -1.2907859200       12.5984750121       22.1822335802
  H        -2.8594045073       12.0920690205       20.8055234922
  H        -2.9303197626       13.6826191524       21.4439194883
  C        -0.0767484700       13.5567664651       22.4028896983
  H        -1.8568873440       12.6489081785       23.1028476238
  H        -1.0450105289       11.5289576241       21.9901162337
  C         1.0747085822       12.9959759796       23.2772765085
  H         0.4176738851       14.0188808747       21.5349240781
  H        -0.3928899913       14.5003532703       22.9344870890
  C         1.5426976034       11.5915015974       22.6134404971
  C         0.6586459060       12.2596518255       24.4128016779
  C         2.1661369322       14.0254291326       23.5904632490
  C         1.3587285139       10.5404960159       23.4640565008
  C         2.0932108732       11.1570659273       21.3858462855
  C         0.8030150916       10.9279134328       24.5870909053
  C         0.2415102303       12.9526385444       25.5551407391
  H         2.4166296887       14.4699754889       22.6121721458
  H         1.7409068906       14.8188783255       24.2202944969
  C         3.4612608637       13.3165982518       24.1115416856
  S         1.6728246938        9.0117005887       22.7111468446
  C         2.1566030754        9.7887669715       21.2296690157
  H         2.2922695990       11.8244826620       20.6706709819
  C         0.4122672960       10.3150822413       25.7786909072
  H         0.3475347773       14.0202946585       25.5527958778
  C        -0.1027005602       12.3661836974       26.7573295166
  H         3.7878250870       12.5879993550       23.4091724253
  H         3.2038857157       12.8062239732       25.0641568083
  C         4.5440176199       14.4196755461       24.3958328502
  C         2.5258977964        9.0931307103       19.8620061607
  C        -0.0075246263       11.0362313569       26.9211863951
  H         0.4890228712        9.2385123943       25.7720220137
  C        -0.6103326043       12.7088066853       27.9784960486
  H         5.2280977410       14.1705694470       25.2283437363
  H         3.9438182624       15.2831229920       24.7767957379
  C         5.3734660361       14.8230389626       23.2254620881
  C         2.5261454099        7.6992347502       19.6215946188
  C         3.0415776254        9.9366825176       18.7583485213
  C        -0.4254895413       10.3295679729       28.0834687032
  C        -0.7028423527       11.5860802668       28.8246843473
  S        -0.9124834747       14.2224669166       28.8572308401
  H         6.0197175614       15.7440055580       23.4855429700
  H         4.7221164481       15.1177976145       22.4075538433
  C         6.4111312272       13.8519135720       22.6927690391
  N         2.2674546739        6.7856493219       20.6169572296
  C         2.9434280704        7.1188984666       18.4402996003
  C         3.3337320596        9.3325707118       17.5369234441
  H         3.1208878290       11.0196963881       18.9304292534
  C         0.6600449874        9.4299569578       28.6755710336
  C        -1.6443018215        9.3950220148       27.6859032612
  C        -1.1682559250       11.9230580009       30.1508042739
  C        -1.2279487503       13.2952963674       30.3361191881
  H         7.2945425245       13.5706087614       23.1745505835
  H         5.8974649896       12.9119333870       22.5209105061
  C         6.9101280455       14.3071981801       21.3070217007
  S         2.6227338817        5.2877067975       20.0460991662
  N         2.8076718239        5.7212981184       18.4741293464
  C         3.2079526778        7.8527594683       17.2405706452
  H         3.6446970723        9.9899034693       16.7816139466
  H         1.2919051282        8.9428522289       27.9034735851
  H         0.2177309863        8.6015363107       29.2606257600
  C         1.6161496567       10.1307243954       29.5736429193
  H        -1.4172013529        8.5436570431       27.0576495618
  H        -2.1190866289        9.0512349653       28.6093574607
  C        -2.6566082713       10.1592563828       26.8195395222
  H        -1.3751611733       11.0474612654       30.8464564365
  C        -1.5463880938       13.9996654650       31.6203460710
  H         7.9767292620       14.4552063912       21.4367051593
  H         6.4982726489       15.3369600575       21.2265537871
  C         6.6857479636       13.3362380748       20.1062285937
  C         3.4175773152        7.2123414678       16.0360427354
  H         1.8556879921       11.1286986920       29.1795085151
  H         1.0095154713       10.3923041455       30.4038754889
  C         2.8566417916        9.3661763138       29.9714529357
  H        -2.2723238291       10.6450773201       25.8773914968
  H        -2.9409902530       11.0261250807       27.3859471953
  C        -3.9702054433        9.3032177000       26.7487454568
  C        -1.6240649145       15.4054676590       31.7955800543
  C        -1.5938066351       13.2453533680       32.8740339969
  H         7.2143547175       13.5486806223       19.2143390795
  H         6.9859605915       12.3095860709       20.5178682306
  C         5.1395288527       13.2079986244       19.8629632490
  H         3.0199772778        6.2533787595       15.8896337792
  C         3.8431866983        7.7893690277       14.8749590565
  H         3.2884809906        8.8834239867       29.1377428116
  H         2.6437027085        8.4818428395       30.5072528055
  C         3.9588444559       10.1273673119       30.7463947767
  H        -3.8386036189        8.4009766358       26.2590829669
  H        -4.3283563206        9.0642408423       27.7256349330
  C        -5.0260758521       10.1520789734       26.1720984794
  N        -1.3453020936       16.3147623440       30.8242059008
  C        -1.9348855971       15.9986089733       33.0224347989
  C        -1.8993991766       13.8379972346       34.0480711631
  H        -1.4399784295       12.1946219600       32.7819391692
  H         4.9744043979       12.6042647467       18.9809074581
  H         4.6625713230       12.7216919567       20.6623664038
  H         4.5513466151       14.0897115987       19.7294351759
  S         4.4616545575        9.3693480806       14.5869410603
  C         3.5939822981        7.0095789087       13.5936086749
  H         4.2017944396       11.1479784050       30.3970527581
  H         3.7557988202       10.3190250862       31.8244784224
  C         5.3544784338        9.4735509714       30.7184271006
  H        -4.6446392515       10.7974104396       25.3510124526
  H        -5.3047096487       10.7750770559       27.0054291445
  C        -6.2367414904        9.3207877156       25.8132279273
  S        -1.3268609953       17.7743749552       31.5224708179
  N        -2.0752695100       17.3623595964       32.8638441167
  C        -2.2606434137       15.2752804896       34.1527620565
  H        -2.0006711615       13.1904402369       34.9244625786
  C         4.4040165796        8.9330663289       12.8183333203
  N         3.8884644520        7.7448008675       12.4893276229
  O         3.3056764378        5.8154586805       13.5413666878
  H         5.9967373011       10.2411710119       31.1725407848
  H         5.7219350310        9.1838523718       29.7218686809
  C         5.3698107529        8.2787757002       31.6521569394
  H        -6.1602847410        8.5414920773       25.0393166959
  H        -6.6151028663        8.7004111662       26.6568006349
  C        -7.4462049186       10.2175955392       25.3252581053
  C        -2.4966712178       16.0242444679       35.3614330860
  S         5.1180798279        9.8855177303       11.5171806186
  C         3.9108136047        7.1540303694       11.1084200916
  H         5.9055412656        8.6650462957       32.4902648724
  H         4.4809612784        7.8442151220       32.0397339045
  C         6.1625856020        7.2091175986       30.9501752219
  H        -7.3278561208       10.1831673571       24.2374466650
  H        -7.3432696264       11.2519154389       25.7902366226
  C        -8.7986216628        9.5634561890       25.6094081551
  H        -2.3976480185       17.0914591631       35.2564298057
  C        -2.9341624826       15.6425716651       36.6457370431
  H         3.6615178328        7.9501869983       10.3675340043
  H         4.9452784130        6.7903082104       10.8648604448
  C         2.7483338407        6.2115313738       10.8673739372
  H         7.1552994061        7.5379083888       30.8859439616
  H         5.7001532690        6.8755337023       30.0299665566
  C         6.1886095806        5.9671270401       31.7675991593
  H        -9.3845119932        9.5511943664       24.6126438697
  H        -8.6581919895        8.5330542092       25.8030448420
  C        -9.6130498701        9.9297622436       26.8085607883
  S        -3.3270203578       14.0440614892       37.0934894068
  C        -3.0615636358       16.6577745095       37.7039485500
  H         2.5496019251        6.1892980430        9.7605549561
  H         3.0080318181        5.2185335132       11.2201343983
  H         1.8059874289        6.5539581178       11.2827901174
  H         6.9190756025        5.2384363363       31.4108719090
  H         5.2472497548        5.4478547117       31.7714564112
  H         6.3215602061        6.2137558383       32.7713785339
  H       -10.1071346570        9.0325949612       27.0964114403
  H       -10.3238804166       10.7683929688       26.6031309283
  H        -9.0136575700       10.2016348268       27.6474853799
  C        -4.0357955540       14.7865771732       38.5184014320
  N        -3.8399582356       16.0654521127       38.6662433010
  O        -2.6664663494       17.8422175116       37.6550641751
  S        -5.0202782750       13.8425592092       39.6821272825
  C        -4.1846733791       16.8315073200       39.8946048596
  H        -4.1181059742       17.9302902272       39.8725908727
  H        -5.3019757911       16.6292619161       40.1785553180
  C        -3.2745091764       16.4644454863       41.0788564673
  H        -3.2261356222       17.1801049141       41.8823837758
  H        -3.4646003174       15.4719671369       41.4793161319
  H        -2.3392547132       16.4764827621       40.5205726626
