352
 i =    43500, time =    43500.000, E =        25.0559174735
  H        11.4965855662        7.4179442819       32.0958916236
  C        11.6133209590        6.3823206468       32.1204133771
  H        12.7079503022        6.3188630077       31.9716336188
  C        10.8454549447        5.6710354771       31.0380669793
  C        11.2304890802        5.7669232969       33.4680551632
  C        11.4265745176        5.9878579647       29.6521945601
  H        10.8545594473        4.5637773845       31.1996560191
  H         9.7787596665        5.8764481299       31.0831620691
  H        11.5814979263        6.2530804016       34.3356975226
  H        10.1957106987        5.8781150919       33.4775049996
  H        11.4757483116        4.7204186556       33.5703450798
  C        10.5739213860        5.2883972596       28.6737562395
  H        12.4002867406        5.4871236481       29.4990944638
  H        11.4724313177        7.0739396250       29.4813828441
  C        11.0793310525        5.5003917960       27.2347463728
  H        10.6490105643        4.1740327593       28.7832067550
  H         9.6348449805        5.6456009042       28.8997550109
  C        10.2115672895        4.8386910753       26.0912390857
  H        12.0663818250        5.2044487440       27.1020374390
  H        11.1197582795        6.5677229891       27.0706037241
  C         8.9344158321        5.6580548453       25.8368551286
  H        10.8075383083        4.8090406030       25.2258447217
  H         9.9680132052        3.8042913426       26.3714028737
  C         7.6759478062        4.9136687334       25.1938145979
  H         8.5961411797        6.0393103534       26.7718011874
  H         9.1647605779        6.4818537864       25.2158304129
  C         7.3686086628        3.6279297784       25.8997982723
  C         8.0426375034        4.1912307515       23.9297831260
  C         6.4331570900        5.8195792312       24.9709492389
  C         7.4776853744        2.5436261166       25.0648817045
  C         6.7382436056        3.2841674585       27.1028721520
  C         7.8450352859        2.8746608339       23.7871041547
  C         8.4928866887        4.8789435998       22.8263376490
  H         6.6757484029        6.6457833600       24.3054826839
  H         6.2107275842        6.2620859465       25.9414389410
  C         5.2018679351        5.1447866991       24.5367818799
  S         7.0025864371        1.0333493128       25.8119786150
  C         6.6094762234        1.9572472769       27.2520954420
  H         6.5723546358        4.1037880104       27.7942071396
  C         8.2496766525        2.2878356397       22.5888459613
  H         8.6363719350        5.9145899251       22.9709731747
  C         8.7866769788        4.3327777685       21.6304156991
  H         5.3708085652        4.6404490314       23.5528640280
  H         5.0288537540        4.3511643913       25.2774675722
  C         3.8148469305        5.8293262088       24.3028540379
  C         6.0635095103        1.2616533286       28.4938094597
  C         8.7576104119        2.9694303739       21.4769433913
  H         8.0957998255        1.2752908217       22.5265130886
  C         9.1433188749        4.7629816469       20.3747246266
  H         3.2241349917        5.0963792820       23.8084174868
  H         4.1071412576        6.7600813776       23.7711127680
  C         2.9677083467        6.1915742097       25.6179448621
  C         5.9478774774       -0.1198133764       28.7474101074
  C         5.7154200600        2.1826177034       29.6003529160
  C         9.2177757694        2.3438753479       20.1962834516
  C         9.4195991261        3.6712706416       19.5853025002
  S         9.4558552339        6.3153372947       19.5900710124
  H         2.3940384375        7.0610157036       25.5179298668
  H         3.6790313725        6.4407129648       26.4347344764
  C         2.2013800830        5.0170734339       26.1540954303
  N         6.3004964609       -1.1737225020       27.8625433673
  C         5.6581206026       -0.6350175045       30.0293859522
  C         5.2458599261        1.6861830254       30.7910598962
  H         5.8402767389        3.2311763867       29.4511391755
  C         8.1600485438        1.5093017729       19.4523600811
  C        10.4424742902        1.4811011357       20.3060724421
  C         9.7211068391        4.0355267248       18.2393501017
  C         9.7966243195        5.4084724185       18.1141398612
  H         1.6352372592        4.5897280996       25.2869912821
  H         2.8674257286        4.2138008385       26.3340433817
  C         1.2766189922        5.3219584261       27.4070921996
  S         6.2823445761       -2.6101191809       28.6535032578
  N         5.8708274604       -2.0214272296       30.1424863211
  C         5.3490424630        0.2375833341       31.1466899835
  H         4.7977300668        2.3222978992       31.5236502300
  H         8.2640210294        0.5143099906       19.8463077898
  H         8.3665624798        1.3509588792       18.4095375672
  C         6.6824366139        2.0394645201       19.5677957008
  H        10.7871235637        1.4222888527       19.3274481047
  H        10.2984490311        0.4654120673       20.5786522580
  C        11.6118573118        2.1109949937       21.1449828870
  H         9.8735596707        3.2762172931       17.4828820691
  C        10.1073556057        6.1096817708       16.7929369568
  H         0.4051770317        4.5976894291       27.5082672707
  H         0.8624738382        6.2802273122       27.2024202922
  C         1.9996957077        5.3666522977       28.7928735796
  C         5.2927160941       -0.3735320060       32.4312856701
  H         6.6699531024        3.1594185193       19.7266219528
  H         6.3288102293        1.5514204239       20.4502104633
  C         5.8225942837        1.6199432436       18.3693725245
  H        11.3895134570        1.7325107467       22.1335152926
  H        11.4805213767        3.1819212404       21.1097421797
  C        12.9363250001        1.6489223912       20.7026340385
  C        10.0391996528        7.5347605707       16.6824317441
  C        10.3953548617        5.3683652431       15.5263641143
  H         2.4030092459        4.3076800407       28.9227639513
  H         2.7830741808        6.0670259706       28.7933364301
  C         1.2719528368        5.5315121041       30.1031759238
  H         5.6597290437       -1.4439649030       32.4191282221
  C         4.9024140989        0.0721653384       33.6568108386
  H         5.9612744971        0.5468855898       18.3330755345
  H         6.1430033511        2.0839947499       17.4500380857
  C         4.2919947690        1.8503527383       18.5244647625
  H        13.2206489615        0.7516643689       21.1853717223
  H        12.8921608167        1.4633813732       19.6729479248
  C        14.0045698493        2.7569981236       20.8562994760
  N         9.8659620342        8.4757155135       17.7298034240
  C        10.3709596473        8.2730996748       15.5326175501
  C        10.6265857717        6.0799467235       14.3591798386
  H        10.2951024189        4.2794702816       15.5311957267
  H         0.3846177888        4.8633174071       30.2661659314
  H         2.0440491928        5.4258750453       30.9383936012
  H         0.7558506784        6.4828184253       30.1551965624
  S         4.4028306229        1.6828725472       34.0432112335
  C         4.9168060165       -0.8248191235       34.8254102196
  H         4.0454877280        2.6395016612       19.2232145561
  H         3.8590589816        2.3292193002       17.6158309361
  C         3.5458123523        0.6053373573       18.8992221536
  H        13.6987912026        3.6903295951       20.2971877766
  H        14.8034499855        2.2736092419       20.3991710465
  C        14.2999671309        3.1804993401       22.2647802417
  S         9.8645488036        9.9850957041       17.2251218955
  N        10.2756159019        9.6228430549       15.6741959835
  C        10.6542369684        7.6078946519       14.3115935078
  H        10.7874593711        5.5823797238       13.4794312910
  C         4.3743535229        1.1472700541       35.7492495211
  N         4.4848101156       -0.1734872162       35.8963984601
  O         5.2136770914       -2.0210229757       34.7161169373
  H         2.5699723997        0.7987050083       19.3480417998
  H         4.0123562043       -0.1023683564       19.5921450661
  C         3.2129389227       -0.0919894858       17.5995095392
  H        14.6708892358        4.1964313746       22.3836749995
  H        13.3115104539        3.1839636530       22.7699759725
  C        15.2294039559        2.1482127496       22.9681177113
  C        10.9834115862        8.4123637230       13.1592689211
  S         4.0202570720        2.0799856547       37.2804331423
  C         4.5453895932       -0.8588600118       37.2734707961
  H         2.6664286287        0.6172375636       16.9955463173
  H         4.0974723937       -0.3822143949       16.9944835061
  C         2.5676718677       -1.4579602392       17.8790169478
  H        15.1486054176        1.1102727760       22.6713513791
  H        14.7645454962        2.1345286215       23.9747660019
  C        16.7569192840        2.5443989938       23.0913427680
  H        10.6130083624        9.4457414139       13.1553158138
  C        11.5921681652        8.0828446848       11.9939926642
  H         3.9342644244       -0.4145504862       38.0988251070
  H         3.9739437917       -1.7988807219       37.2021682983
  C         5.9555554519       -1.0921887288       37.7578839049
  H         2.7276321632       -1.9372276383       18.8968237058
  H         2.9979607598       -2.1108901725       17.1208529454
  C         1.0713385592       -1.3170081094       17.7087662529
  H        16.7888248529        3.3888608081       23.7978789512
  H        17.4137967723        1.8398311932       23.5443145348
  C        17.4375882197        2.8042301279       21.7676652115
  S        12.1942536933        6.5960905556       11.5599943500
  C        11.6588138662        9.0984741473       10.8333114313
  H         6.1838456906       -0.4877091068       38.6378814070
  H         6.0897599314       -2.1167516507       37.9969923260
  H         6.7326906303       -0.9608109716       37.0060723825
  H         0.6368397113       -2.2640820934       18.0379604731
  H         0.7331881201       -1.1784057111       16.7198606854
  H         0.6186858936       -0.6190676664       18.3555680221
  H        18.4398788763        3.1440808820       21.9705309454
  H        16.9517614192        3.5830955005       21.1343142180
  H        17.4776875750        1.8735115579       21.1969811528
  C        12.2922217345        7.1084441795        9.9187310698
  N        12.2270808678        8.4718399836        9.7547348133
  O        11.2458292269       10.2617563186       10.8840264937
  S        12.9110614120        6.2340409483        8.5657136409
  C        12.2863302643        9.2530961189        8.4855324285
  H        12.3586669808       10.3075120064        8.7218273637
  H        13.0895934324        8.9681188896        7.8193025096
  C        10.9079505974        9.0214184701        7.7957294701
  H        10.6876933760        9.5480279537        6.8558002447
  H        10.7542417136        7.9625485971        7.5394434888
  H        10.0385379098        9.2298590493        8.4899643196
  H        -1.4473209010       12.6041370650       16.2101028185
  C        -2.2502858854       13.3312192377       16.2081470923
  H        -1.7113896754       14.0522588043       15.4892316346
  C        -2.4456140688       14.1715990368       17.4708966678
  C        -3.4966359387       12.9269405160       15.5202387031
  C        -2.9091209290       13.4612442089       18.7695452335
  H        -1.5615690006       14.8266282681       17.5822100443
  H        -3.2746589231       14.8342014473       17.2189823143
  H        -3.3960290210       12.1438531242       14.8327224358
  H        -4.3131837510       12.5950573394       16.1718530060
  H        -3.9026348138       13.7075697617       14.8860412032
  C        -1.8223874120       13.3985973142       19.8505809012
  H        -3.3307147091       12.4950497702       18.4378902224
  H        -3.8049900575       14.0601397924       19.1382052942
  C        -2.1992730059       13.3640168818       21.3217536671
  H        -1.1712843946       12.5302284007       19.6268115420
  H        -1.0450518384       14.2154596125       19.7395875328
  C        -1.1113860058       12.5988308562       22.0953382089
  H        -3.1665239025       12.8505632085       21.3367232541
  H        -2.3019008769       14.3280079151       21.7848305520
  C         0.1262302859       13.4931775055       22.4295656203
  H        -1.5673694763       12.3721658424       23.0505432315
  H        -0.9617904345       11.6128229941       21.6799526125
  C         1.3383276038       12.8208978420       23.1755248565
  H         0.4966653745       14.0157395455       21.5130537211
  H        -0.2067508772       14.3571036809       23.0132878558
  C         1.6414433428       11.4831065895       22.5328324487
  C         0.8217992757       12.1166991618       24.4696188317
  C         2.5910777978       13.7334318281       23.1686559782
  C         1.2574656367       10.4058130603       23.2604923578
  C         2.1316060697       11.0797844305       21.2578411639
  C         0.8362369707       10.7506856576       24.5371444648
  C         0.3792998669       12.7594671880       25.6194748509
  H         2.8826061903       14.0608957501       22.1457699786
  H         2.2753730905       14.6238632404       23.5635794724
  C         3.8822699427       13.1012393014       23.9159165633
  S         1.5726774730        8.8782146236       22.5307539225
  C         2.2541372283        9.6708701989       21.1597967795
  H         2.4043644357       11.9503223620       20.5615623491
  C         0.4501852805       10.1507931368       25.6782938473
  H         0.4236888032       13.8010771434       25.5670328343
  C         0.0063453727       12.1568552368       26.7836278520
  H         4.1596809027       12.0508191234       23.6608906024
  H         3.5144061145       12.9711898633       24.8751627595
  C         5.0716536605       14.1012948874       23.9202337420
  C         2.6877289472        8.9377688074       19.9322347546
  C         0.0005283924       10.8207968483       26.7877640355
  H         0.5238981160        9.0846068382       25.8547654462
  C        -0.4527852308       12.5500075901       28.0013688806
  H         5.7725949598       13.7931944342       24.7298128932
  H         4.7301437156       15.1091747277       24.1710390579
  C         5.7878187007       14.1979600999       22.6264606749
  C         2.6463817912        7.5191478149       19.6233637823
  C         3.1400710729        9.7711787216       18.8611250153
  C        -0.5134289671       10.1334014296       28.0288851141
  C        -0.6881731081       11.4668879906       28.8158143717
  S        -0.7615326622       14.0629475246       28.7508921004
  H         6.6255123843       14.8430667584       22.7738866677
  H         5.1746974896       14.7141564591       21.8905677176
  C         6.5898600249       12.9439119997       22.3002981674
  N         2.1665383238        6.5764098116       20.5163712332
  C         2.9462423811        6.9867389772       18.3639869251
  C         3.5186398410        9.2667505927       17.6387905141
  H         3.2031929591       10.8143947318       19.0128674560
  C         0.5968741542        9.2473052870       28.6345343292
  C        -1.8786318520        9.3425007286       27.8663965636
  C        -1.0707750106       11.8315280909       30.1494418553
  C        -0.9642310274       13.2010144801       30.2660808926
  H         7.2807463728       12.6740927391       23.0648727622
  H         5.9452925126       12.0947051709       22.2906454505
  C         7.3949250823       13.0517977394       20.9738460374
  S         2.1222917366        5.0859998722       19.6979609145
  N         2.7278594317        5.6031740607       18.3175531429
  C         3.3631596218        7.8160153995       17.2896534579
  H         3.7978681684        9.9228939549       16.8441661167
  H         0.8665571273        8.5587879610       27.8399443229
  H         0.2097519020        8.6588186853       29.3897186409
  C         1.8895842233       10.0884238302       29.1532979059
  H        -1.6046126475        8.4047911495       27.2344995009
  H        -2.2341148249        9.0475342899       28.8532888641
  C        -2.9350587296       10.2713534970       27.2359413574
  H        -1.1857491163       11.0233190676       30.8686333400
  C        -1.2422746014       13.9012651833       31.5966718910
  H         8.1646466446       12.3314839619       20.8625547625
  H         8.0077122525       13.9185256832       21.1160751995
  C         6.5757901968       13.2871505420       19.6675054679
  C         3.4334844326        7.3238864582       15.9433302570
  H         2.2194768629       10.8902504962       28.4461214030
  H         1.7009636356       10.6306349748       30.1322139323
  C         3.0417319273        9.1751754307       29.5025739869
  H        -2.4274067961       10.8170333822       26.4102448769
  H        -3.1849226380       11.1412883883       27.8064166358
  C        -4.1557597274        9.4264712092       26.9064844294
  C        -1.5887128515       15.2953984726       31.6880792750
  C        -1.5188762504       13.0845637703       32.8195406918
  H         6.3323997992       14.3204243249       19.5081532257
  H         7.1892775125       12.9722494661       18.8111411296
  C         5.3122558805       12.4322876160       19.6291050986
  H         3.1551961678        6.2474421189       15.8714898814
  C         3.7737735434        7.8748444311       14.7438179078
  H         3.3295838706        8.6155936948       28.6076762178
  H         2.6668505914        8.5136962022       30.2604762338
  C         4.2373434541        9.9557325792       30.0734688681
  H        -3.9897544952        8.5398704355       26.2752643592
  H        -4.6245243535        9.0714171098       27.8122326620
  C        -5.2089822145       10.3013203371       26.2508717681
  N        -1.3323698895       16.2195786790       30.6623135911
  C        -1.9271657094       15.8993848635       32.9087151174
  C        -1.8426094269       13.6598480969       34.0326485303
  H        -1.4062757715       12.0489511758       32.7628590573
  H         4.8939159815       12.1985942654       18.6929101519
  H         5.4645408947       11.4922428428       20.1981485282
  H         4.4714825138       12.8213591629       20.1556009751
  S         4.0874582934        9.4910680577       14.4446570283
  C         3.8498697803        6.9578586267       13.5092117562
  H         4.3173793079       10.9439699485       29.5595284125
  H         4.0659410414       10.1069148711       31.1699692834
  C         5.5443463399        9.1534546009       29.7845947309
  H        -4.8564031869       10.8196499037       25.3617210233
  H        -5.5434422796       11.0794983439       26.8685820122
  C        -6.6455319020        9.6388299977       26.0684431544
  S        -1.5191268915       17.6819491940       31.2558576498
  N        -1.9837393703       17.3099567194       32.7725258187
  C        -2.1200596698       15.1605194535       34.1000862276
  H        -1.9001165600       13.0557371152       34.9072492976
  C         4.1173630208        8.9901273932       12.7776952480
  N         4.1405409952        7.6845477153       12.4475985203
  O         3.8394840490        5.7146789124       13.6085173239
  H         6.4624983575        9.8011718965       29.7309226564
  H         5.5198246698        8.7514419297       28.7679608726
  C         5.7584666867        8.1021072215       30.8739737773
  H        -6.4482594575        8.7304885390       25.4723522782
  H        -7.0437787748        9.3867026847       27.0568908945
  C        -7.7333147873       10.3774927460       25.3301623213
  C        -2.3486272977       15.9269736429       35.2777213492
  S         4.6700237203       10.0932027003       11.5409366375
  C         4.2390322596        7.0286665435       11.1370155047
  H         6.6340557817        8.3894273010       31.5833053459
  H         4.9485099274        7.9555232717       31.5416178113
  C         6.3462605482        6.8369185260       30.2654199282
  H        -7.4362970487       10.5810479896       24.3393340982
  H        -7.8295955945       11.4093817667       25.6575889741
  C        -9.1502887964        9.6476880213       25.2887293018
  H        -2.0523673308       16.9386797788       35.2414543292
  C        -2.9734220950       15.5291070212       36.4457766432
  H         4.8721970104        7.6069111646       10.4856847768
  H         4.7670924161        6.0842683469       11.2305103199
  C         2.8718824005        6.6911933161       10.5102082212
  H         7.2797239568        7.0070601256       29.7220587281
  H         5.6344237859        6.5016758002       29.5025927492
  C         6.5938730917        5.8035899413       31.3114984955
  H        -9.6745440162        9.9802599505       24.4391142129
  H        -8.9118939617        8.5567429686       25.0995879464
  C        -9.9260769980        9.7805509645       26.5337506429
  S        -3.5235342126       13.9659027388       36.8142403552
  C        -3.0750675507       16.4913361684       37.5661938922
  H         2.8411414055        6.9898319131        9.4709445459
  H         2.6941935450        5.6380724460       10.5212416971
  H         2.0437072258        7.2803803248       11.0373645372
  H         5.6047836851        5.3373772401       31.5491366503
  H         7.0039119950        6.1785592834       32.2138926817
  H         7.2661289532        5.0200634028       30.9206368421
  H        -9.4257360644        9.3828571327       27.4349393216
  H       -10.8560197602        9.3339420452       26.4983773330
  H       -10.2055818321       10.8727567488       26.7060517206
  C        -4.0217262075       14.6090155760       38.3192656895
  N        -3.7412609641       15.9075526579       38.5548149187
  O        -2.5339670362       17.6442995626       37.5097166970
  S        -4.5638164577       13.7837690347       39.7334697698
  C        -3.9889940832       16.5821186937       39.8082913028
  H        -4.0390142406       17.6172392662       39.4954069626
  H        -4.9206443876       16.3458435512       40.2448871506
  C        -2.7404739811       16.4489273887       40.7666107697
  H        -2.0376032497       17.1935124987       40.7217170414
  H        -3.0288236486       16.4705935204       41.7719296682
  H        -2.1928938776       15.5244786030       40.5752564708
