352
 i =    31800, time =    31800.000, E =        25.4178028990
  H        12.1178200662        5.0190256424       32.7301696591
  C        11.0794932563        5.4604977794       32.6475833935
  H        10.4553723652        4.6440818942       32.6392197292
  C        10.9388941925        6.2771314495       31.4308233391
  C        10.6425897634        6.2167894810       33.8967135476
  C        11.3652523202        5.7823488192       30.0370839082
  H         9.9292021110        6.6192451389       31.3823724164
  H        11.5186418550        7.1635039450       31.6002176918
  H         9.6547606147        6.6843270670       33.8159738615
  H        10.4985437420        5.4379144895       34.6431371232
  H        11.4692239705        6.9284436669       34.1565935898
  C        10.2761696884        5.9365581265       28.9814360292
  H        11.5852906351        4.7405870291       30.1668273060
  H        12.2757611810        6.2926629293       29.8064794128
  C        10.7910273024        5.8588179903       27.5403486940
  H         9.6740651218        5.0985665237       29.1925628035
  H         9.7571558760        6.8631463899       29.1761703968
  C         9.9054784176        5.0551920289       26.6878235258
  H        11.7001759131        5.3187552583       27.4843334691
  H        10.9708816383        6.8395504305       27.1484969657
  C         8.5771192308        5.7557414818       26.4992632395
  H        10.3778440456        4.9189427504       25.7401801050
  H         9.6966430581        4.0768007195       27.0196692650
  C         7.5590012684        5.1250986625       25.5081698721
  H         8.0908110777        5.8719940367       27.5147952819
  H         8.7118125274        6.7234642671       26.0986838584
  C         7.1995880457        3.8097751125       26.1810102110
  C         8.1188696227        4.4807766482       24.3769397970
  C         6.2337744127        5.9826006522       25.2510424034
  C         7.5988205302        2.7548371176       25.4090195567
  C         6.5344638343        3.4906275144       27.3373020008
  C         8.1679137490        3.1086183285       24.1975569761
  C         8.5325717706        5.1788470500       23.1989652908
  H         6.4221857144        6.8755258397       24.6842518164
  H         5.9794815933        6.3269596301       26.2469192881
  C         5.0925294139        5.2997764213       24.6316510499
  S         7.3882843249        1.2747733301       26.2784515875
  C         6.4920346586        2.1093854266       27.5212039369
  H         6.2659093964        4.2822071216       28.0059417519
  C         8.6790616191        2.5540358482       23.0939128353
  H         8.2739992781        6.1981455179       23.1158809503
  C         8.9414400819        4.5886540946       22.0368229145
  H         5.3233160507        5.0393072694       23.6113857427
  H         4.9393688968        4.2982752702       25.0826631464
  C         3.7702274725        5.9766426310       24.5348225197
  C         6.0050399689        1.4628485856       28.7382180176
  C         9.0063121832        3.2761771592       21.9361109705
  H         8.6419424942        1.4775601701       22.9859717659
  C         9.2610043070        5.0217520491       20.8119489853
  H         3.0741332620        5.4204008808       24.0442676694
  H         3.9468657341        6.9556538464       24.0403486766
  C         3.1844283157        6.2113437455       25.8901931561
  C         5.9149384679        0.0593695141       29.0026280551
  C         5.5082963121        2.3648840604       29.8265195814
  C         9.4192231555        2.6514034650       20.6567595685
  C         9.4827413271        4.0177158257       19.9042833074
  S         9.4256481553        6.5779711615       20.0450501552
  H         2.3489710579        6.8907691143       25.8702166755
  H         3.8690225723        6.7714350419       26.5272387470
  C         2.7710284866        4.9298136669       26.5874285177
  N         6.2696805164       -0.9477795316       28.0558737055
  C         5.6881670655       -0.4696906239       30.2412556315
  C         5.2274695379        1.8212853395       31.0785668762
  H         5.4818416757        3.4771299225       29.7014334680
  C         8.1767382117        1.8529796856       20.1007528093
  C        10.7068567564        1.8704764779       20.6263900862
  C         9.7631347092        4.4770640800       18.5693360362
  C         9.8145836903        5.8488680967       18.5467539047
  H         2.1821657865        4.3158281854       25.8995768383
  H         3.6448948857        4.3165019540       26.9864712430
  C         1.8686726119        5.2082980593       27.7605096862
  S         6.1750632769       -2.3691296852       28.7842134073
  N         5.7710076880       -1.8492948168       30.2351120103
  C         5.3388533913        0.3666803832       31.3472845921
  H         4.8333302796        2.4719037180       31.7893594634
  H         7.8704382666        0.9931230133       20.7562631965
  H         8.4748688716        1.4845716403       19.1345578342
  C         6.9476073046        2.7211952535       19.8068960029
  H        10.9191267459        1.4973180666       19.6297486901
  H        10.6300307176        1.0029416163       21.3584914097
  C        11.8621847718        2.7630176665       20.9789175999
  H         9.9146325129        3.8052029609       17.7864897339
  C        10.1163232535        6.5999123265       17.2491047017
  H         1.6618046273        4.1746680077       28.1184344125
  H         0.7987160798        5.6803210162       27.6464062223
  C         2.5084636368        5.9640110636       28.9315232031
  C         5.0560951067       -0.2169281173       32.6048360385
  H         7.1735664945        3.5349777510       19.1153161457
  H         6.6637408982        3.2182324229       20.7119052903
  C         5.8121024996        1.7783877722       19.3185379018
  H        11.7730928158        3.3436531630       21.9390490941
  H        11.9402082134        3.6104997012       20.2804439464
  C        13.2089105352        1.9637030531       20.9768447203
  C        10.2053759117        7.9552133560       17.0872670737
  C        10.2871857385        5.8419283348       15.9777482228
  H         3.5232603648        6.1752088945       28.7710995209
  H         2.0795588246        6.9263419711       29.0002458657
  C         2.2377257808        5.3692970865       30.2940950074
  H         5.0025077378       -1.3129493294       32.6117422518
  C         4.7675002715        0.3432841095       33.8458708997
  H         5.7535673761        0.9171593055       19.9875850268
  H         6.0055762447        1.4544020654       18.3083141566
  C         4.5860646931        2.5640968716       19.1178627181
  H        13.3126913107        1.5506687817       21.9254871581
  H        13.1748070344        1.1483070328       20.1797564884
  C        14.4407854683        2.8526934551       20.8921173304
  N         9.9923644483        8.8593519049       18.1763063098
  C        10.5103143457        8.5865298721       15.8934936783
  C        10.4227437276        6.4890879840       14.7675159004
  H        10.1714279374        4.7713536117       15.9902248813
  H         1.1600225159        5.3533189864       30.4818675255
  H         2.7394447135        4.3869115711       30.2596671383
  H         2.7754522828        5.9651161650       31.0374839337
  S         4.4525673658        1.9912954241       34.2231934251
  C         4.7489153390       -0.5903616224       35.0428782214
  H         4.5919503311        3.4289430093       19.7440925429
  H         4.6927978214        3.0725610840       18.1986225050
  C         3.2768477132        1.7308657950       19.0902499197
  H        14.3011114670        3.5130525336       20.0218310759
  H        15.2345552462        2.2223828304       20.7166031210
  C        14.7159427225        3.5096603828       22.2648894918
  S        10.2174275479       10.3629732875       17.6253738492
  N        10.5568578450        9.9559529099       16.0767722859
  C        10.5340466924        7.9325712453       14.7051927650
  H        10.4931147523        5.8493897803       13.9374172070
  C         4.2900226279        1.5157276008       35.8848093700
  N         4.4801193097        0.1675654681       36.1461555271
  O         4.8869852354       -1.8094671655       35.0094203615
  H         2.3876543395        2.2104914481       19.4228132019
  H         3.3332662602        1.0321122122       20.0324317263
  C         2.9607209084        1.0620987811       17.7128924097
  H        15.1614216655        4.4870782996       22.1434447469
  H        13.8338378273        3.6662891724       22.8824620855
  C        15.5502353829        2.5993743142       23.2693749164
  C        10.9683501340        8.6716431177       13.5985889276
  S         4.1684296496        2.6245274728       37.3501982487
  C         4.4957858571       -0.5240373888       37.4686362948
  H         2.0066472457        1.3791610906       17.2978978418
  H         3.6527480453        1.4671505991       17.0129567047
  C         3.0770131948       -0.4746499601       17.6021390514
  H        15.4479248148        1.5075804534       23.0257920465
  H        15.1477271175        2.7488431948       24.2345622714
  C        17.0576222525        2.9621254565       23.5358561006
  H        10.8017296344        9.7128265684       13.6952976072
  C        11.3117169499        8.3217599122       12.2998924985
  H         4.1006605212        0.0881760523       38.2686037745
  H         3.9131793393       -1.4083778507       37.4324413267
  C         5.9828893437       -0.9271707303       37.7744796709
  H         3.9804280267       -0.7794193189       18.1180183994
  H         3.2970990703       -0.7645900326       16.5325479048
  C         1.9634202142       -1.2678678696       18.1333630909
  H        17.1923658860        3.9882561535       23.3192874869
  H        17.3661308841        2.8108843861       24.5628996911
  C        18.0501879610        2.1624382120       22.7732411248
  S        11.6250072710        6.7688287973       11.6394686310
  C        11.6160065691        9.4478997396       11.3937238045
  H         6.6123208456       -1.2781844089       36.9462919200
  H         6.5825283277       -0.1944174926       38.3218782792
  H         5.9859317411       -1.8338757096       38.4590269099
  H         2.1114336569       -2.3629296623       17.9599353463
  H         1.0809114582       -1.0501523117       17.6243134889
  H         1.7121506916       -0.9508474008       19.1456352238
  H        18.6049566860        1.4019664477       23.3933934727
  H        18.7740930723        2.8461178046       22.3655604998
  H        17.5059122622        1.6293155868       22.0459887415
  C        12.0593056902        7.5538989771       10.1500357388
  N        11.9702258633        8.8969884004       10.1979903168
  O        11.5501758318       10.6267759114       11.6435155926
  S        12.3643803031        6.6592870552        8.6603785912
  C        11.9384770146        9.6339305669        9.0102715643
  H        12.4145075269       10.6141975510        9.2554919133
  H        12.6182161213        9.2403637283        8.2648132697
  C        10.4358049729        9.7681567819        8.5681185517
  H        10.4721448367       10.6730368957        7.9514504001
  H        10.2344936467        9.0438821219        7.7461533766
  H         9.5613941245        9.7583787489        9.2430559492
  H        -3.2283956356       14.9027554955       16.5411598846
  C        -2.9821383903       13.8732235118       16.5404876860
  H        -3.8604428948       13.2324926907       16.7082729922
  C        -1.9998738367       13.7082179313       17.6747672340
  C        -2.4365405113       13.5681880624       15.1143402898
  C        -2.7591527482       13.7136505353       18.9867769042
  H        -1.4146774277       12.7840040815       17.6058201767
  H        -1.1825253275       14.4767753889       17.6626612960
  H        -1.3855112412       13.8835685456       15.0300527474
  H        -2.5785350404       12.5561671250       14.6948865162
  H        -3.1491929885       14.0964850326       14.4918997540
  C        -1.6989837164       13.9785814980       20.0580576615
  H        -3.2672037873       12.7376215600       19.1661136145
  H        -3.5734197008       14.5283513376       18.9592820357
  C        -2.2761482466       13.7409789089       21.4519918263
  H        -0.7408810702       13.4870830007       19.8501000568
  H        -1.4940981253       15.0438431941       19.9614350400
  C        -1.2246685671       13.0007281711       22.3938860710
  H        -3.2153347506       13.1556327368       21.3624104578
  H        -2.3512292679       14.6495990845       22.0586519345
  C         0.1423428293       13.7137697063       22.6367658529
  H        -1.5527123123       12.8745999643       23.3973847343
  H        -0.9034231379       12.0512981720       21.9019098239
  C         1.2283153901       12.9507244344       23.4456060181
  H         0.4905718532       14.0118775316       21.6948176768
  H         0.0631881721       14.6577065494       23.2276566456
  C         1.6097879667       11.5823587203       22.8540333261
  C         0.7744785986       12.2125044036       24.6503961713
  C         2.5847531648       13.7600168790       23.6516653653
  C         1.3462053066       10.4809739110       23.6582930259
  C         2.1544997932       11.2442701443       21.6388598195
  C         0.8713191448       10.9116605387       24.8526666570
  C         0.3848761270       12.9833034192       25.7599093527
  H         2.9196036679       14.1062664183       22.6579931836
  H         2.4162029977       14.7828967541       24.1087812798
  C         3.7192598498       13.0516204984       24.4753043503
  S         1.8685416090        8.9544772904       23.0044524271
  C         2.1733125242        9.8748821983       21.4730370659
  H         2.3683998172       11.9993027931       20.8488699207
  C         0.5104552185       10.4145886023       26.0567986509
  H         0.4896038852       14.0774566966       25.7144825214
  C        -0.0079585689       12.4213901264       26.9243002076
  H         3.9753182877       12.1774160991       23.8605385922
  H         3.5269088043       12.4779374260       25.3334556953
  C         4.9744499714       14.0099382065       24.4594737388
  C         2.5254545146        9.1710852049       20.2389543229
  C         0.1304799338       11.1378928008       27.1378779618
  H         0.4314750489        9.3518209208       26.1555625183
  C        -0.4005665753       12.9107234526       28.1544841315
  H         5.7307955025       13.6639836168       25.2002344713
  H         4.6919099914       14.9068573158       24.9366891975
  C         5.5601279600       14.3081353492       23.0958016594
  C         2.5114565778        7.7932356350       20.0552668996
  C         3.0914981813        9.9839262082       19.0792845665
  C        -0.2250630528       10.4772991761       28.4207516061
  C        -0.5683593654       11.8811694504       29.0824173839
  S        -0.5389558059       14.4411125901       28.9658578235
  H         6.4412484523       14.8809291956       23.2063824401
  H         4.8857972197       14.9668414055       22.5928104291
  C         5.8846444803       12.9765538582       22.3223685865
  N         2.0422749122        6.8274988103       20.9830646711
  C         2.8223228664        7.2655818045       18.8124763019
  C         3.4132699312        9.3655480955       17.8978468452
  H         3.1800992894       11.0270033252       19.1815327626
  C         0.8338883654        9.8111371063       29.2398422044
  C        -1.5277820830        9.5967768751       28.2934015799
  C        -1.0183723731       12.3361250661       30.3034223882
  C        -0.9136201046       13.7131742454       30.4086618316
  H         6.1452911169       12.1571005143       22.9612297564
  H         4.9521488137       12.6683236087       21.8180200691
  C         6.9361053559       13.1789718872       21.1921634047
  S         2.1424687708        5.3543087441       20.2824904354
  N         2.6554399939        5.8462363978       18.8415328711
  C         3.2422253969        7.9647143372       17.7006039371
  H         3.8563922247        9.9814536560       17.1024858790
  H         1.2612338628        8.9395927079       28.6821598072
  H         0.3015501652        9.4792321821       30.1229612190
  C         2.0251158449       10.6409453450       29.6706682368
  H        -1.2507595232        8.6524638267       27.9554222559
  H        -1.7365545845        9.3056308392       29.3377487529
  C        -2.7657788983       10.1112239343       27.6065780760
  H        -1.1682062420       11.5851703024       31.0730873157
  C        -1.2574996676       14.3903900945       31.7064074565
  H         7.0761822212       12.1806927923       20.7328707927
  H         7.8384633740       13.5526138636       21.6452813341
  C         6.5888482301       14.1657283352       20.1201664735
  C         3.5174633541        7.2956333618       16.4218973227
  H         2.3191026094       11.3427801832       28.9220326394
  H         1.7300173399       11.2070590574       30.5668658652
  C         3.1625253064        9.7418237106       30.0621569029
  H        -2.5979973454       10.4366704409       26.6333537577
  H        -2.8603903004       11.0228509157       28.2335220176
  C        -4.0146623884        9.2900099083       27.8341056003
  C        -1.3097440884       15.8343631934       31.8642213271
  C        -1.7337134440       13.5775401219       32.8477350352
  H         5.7395349388       14.7664055886       20.4419462887
  H         7.4012495581       14.9027030881       20.1673945627
  C         6.4471863034       13.5711125646       18.6851935222
  H         3.5001018440        6.1994564518       16.4782323202
  C         3.7110718521        7.8228427683       15.1254565903
  H         3.5402734469        8.9967896403       29.3791371687
  H         2.8034850645        9.2332375262       30.9695359436
  C         4.3758540837       10.5781339107       30.5585617962
  H        -3.8352993672        8.3850632265       27.2506740399
  H        -4.1501553011        8.9021474530       28.8304769985
  C        -5.3552788401        9.9549214896       27.5142389062
  N        -1.0661648260       16.7779117998       30.8875241037
  C        -1.7148627556       16.4004512838       33.0083401004
  C        -2.0187023913       14.2768484082       34.0111620137
  H        -1.6718613793       12.4929059293       32.9490225868
  H         7.3872443652       13.4920571916       18.0454029818
  H         5.8832432656       12.5796835019       18.7012361330
  H         5.9055319902       14.2751223853       18.1350017891
  S         3.9481795824        9.4208149257       14.7107961319
  C         3.8021055286        6.7931297099       14.0059653419
  H         4.5495767372       11.5044989161       30.0143884474
  H         4.0888510987       11.0846019216       31.4967710018
  C         5.7469914428        9.8399356844       30.6368733692
  H        -5.2355103482       11.0467631298       27.7595523890
  H        -6.1875622918        9.5433749847       28.0775465660
  C        -5.6616852256        9.8136497613       26.0470253934
  S        -1.2177728980       18.3038098547       31.5077539645
  N        -1.8353154483       17.8223200310       32.9233698215
  C        -2.0420004687       15.7192692567       34.1743393037
  H        -2.2618215924       13.7699295929       34.8794608009
  C         4.2880901720        8.8176326362       13.1051281767
  N         4.2683486644        7.4564706065       12.9298079839
  O         3.6299766318        5.5810579171       14.0921374075
  H         6.4469838082       10.4469984687       31.0389361200
  H         6.0050992771        9.6777333443       29.6061046144
  C         5.7791510472        8.5224187161       31.4798777224
  H        -4.7232389386        9.9508931773       25.4937006804
  H        -5.9617219364        8.7832512625       25.9143207788
  C        -6.6876184974       10.8412023269       25.4950195556
  C        -2.4203525325       16.4176613590       35.3542081939
  S         4.5501605496        9.8229468637       11.6388259110
  C         4.5229277349        6.7381204485       11.6562825429
  H         6.2009494428        8.6687268063       32.4655201139
  H         4.7996290622        8.2557687284       31.7141599509
  C         6.4250941081        7.4318664692       30.6147560906
  H        -6.1621546517       11.3557146393       24.7401349449
  H        -6.9817016480       11.4792437172       26.2845378715
  C        -7.9823126659       10.2222020521       24.8869001168
  H        -2.1804813599       17.4411037775       35.3092281789
  C        -3.0006909924       16.1242247492       36.5043091882
  H         5.2468709803        7.3040359013       11.0394670102
  H         4.9110030927        5.8081326481       11.9704669384
  C         3.2147574338        6.6392579623       10.8937070774
  H         7.3132561947        7.9191212194       30.3545612292
  H         5.8114862466        7.2213854148       29.7107197744
  C         6.7179545734        6.1221866547       31.4050265871
  H        -8.4024491344       10.8549083525       24.0104687865
  H        -7.7782980311        9.2843360066       24.4166288997
  C        -8.9356169971       10.0106656488       26.0582024365
  S        -3.5126424738       14.5884238808       36.9853842582
  C        -3.0536741384       17.1951307688       37.5440872024
  H         2.3766359982        6.9750785328       11.5410012610
  H         3.1181492784        7.4732406558       10.1809196066
  H         3.1527589103        5.6428479453       10.3644544955
  H         6.0523132761        5.8585985305       32.1746537927
  H         7.7750547675        6.1793128190       31.6622757928
  H         6.5088291540        5.2846978867       30.8265365861
  H        -9.8003951006        9.4473006924       25.6681307835
  H        -9.1767435173       11.0279608082       26.3578838884
  H        -8.5618868822        9.5272987054       26.9365233740
  C        -3.8260195726       15.3137581836       38.5853206343
  N        -3.6619674912       16.6660911839       38.6542842240
  O        -2.6434217156       18.4054984085       37.5005450750
  S        -4.1837826679       14.3999430239       40.0234220370
  C        -3.8657581493       17.3994174818       39.8206946607
  H        -4.0301953115       18.4181252915       39.4288141556
  H        -4.7736465595       17.0654677097       40.3378229106
  C        -2.5131927220       17.2625073167       40.6629891947
  H        -2.4972386033       18.1032339468       41.3530330950
  H        -2.5010743679       16.3106087703       41.1190376632
  H        -1.6251772965       17.3513312139       40.0066278125
