352
 i =    25400, time =    25400.000, E =        25.5227818658
  H        11.7081236296        7.3163819521       33.1548599120
  C        11.4726238203        6.4003842947       32.6647268665
  H        12.4357754841        5.9263568864       32.4482079665
  C        10.5906335733        6.7330128517       31.3830833047
  C        10.6369441284        5.4492672902       33.5660397059
  C        11.1098083370        6.0216848060       30.2392283297
  H         9.5459064145        6.3974410530       31.6964917786
  H        10.6757793955        7.7946845086       31.1799595238
  H         9.9458948584        5.8141187652       34.2580136900
  H        10.2262012846        4.5754738672       32.9714888549
  H        11.3148744062        4.9625504018       34.3345639035
  C        10.0325440701        5.9520928889       29.1628008237
  H        11.5526387239        5.0822509860       30.3958306961
  H        11.9155180687        6.6571993202       29.9109497205
  C        10.6048615923        5.6663348683       27.7218669152
  H         9.2150637906        5.3567341101       29.4651354786
  H         9.6734475821        6.9833688105       29.0406477921
  C         9.6027027353        5.1510422014       26.5928831410
  H        11.3519689497        4.8633880242       27.7785040225
  H        11.0531156427        6.5582412461       27.3859994726
  C         8.3811335486        5.9916918320       26.4013728707
  H        10.1345486884        5.1343312179       25.6057688315
  H         9.3195652007        4.1487866749       26.5558790620
  C         7.2082328824        5.4236137904       25.5536932225
  H         7.9882929897        6.4924760916       27.2935973693
  H         8.6359877520        6.8913959319       25.7970698150
  C         6.7303009509        4.0426573370       26.1760421065
  C         7.6115627230        4.6751099687       24.2324273032
  C         6.0843260256        6.4505531170       25.2785198663
  C         7.0512628696        2.9648146478       25.3747127203
  C         6.1802973936        3.5245374200       27.4004815420
  C         7.5268370570        3.3237380868       24.1537906596
  C         8.0604602802        5.3768365343       23.1233068543
  H         6.4234977147        7.2378926356       24.5980647524
  H         5.8470786575        7.0851485405       26.1312210001
  C         4.7877142730        5.8085938330       24.6944328161
  S         6.8512484821        1.4666823434       26.0831267223
  C         6.1992604252        2.1637555411       27.4834392912
  H         6.0086695781        4.1943130809       28.1466044868
  C         7.9597336756        2.7064595878       22.9656211564
  H         8.1328507232        6.4391601854       23.2520971268
  C         8.3971617183        4.7309515513       21.9466394023
  H         4.8701183692        5.4676624003       23.6900336472
  H         4.5522361841        4.9189705405       25.2622197680
  C         3.4843731077        6.6401781323       24.6830167523
  C         5.8933761783        1.3830870458       28.7631055987
  C         8.4596393886        3.3720858644       21.8080745240
  H         7.9371893957        1.5899552899       22.9228270814
  C         8.9216146936        5.1410424395       20.7072379230
  H         2.7029207284        6.2724235701       23.9976650498
  H         3.6632318535        7.6489403850       24.2994331687
  C         2.9967073793        6.8207098006       26.0906448020
  C         5.8945156025       -0.0312341122       28.9239907634
  C         5.3488114685        2.1114891593       29.9185360539
  C         8.7991387344        2.6784001524       20.5827931819
  C         9.0688355120        4.0294317609       19.8421599042
  S         9.1871867764        6.5813603152       19.8786760268
  H         2.0464339080        7.3695843391       25.9721302221
  H         3.6838935179        7.4924228076       26.6258538610
  C         2.5389849912        5.5041100728       26.7025557778
  N         6.2207503038       -0.9587688595       27.9109045919
  C         5.6191813138       -0.6637802248       30.1630928144
  C         5.2208051361        1.5194543350       31.1545601708
  H         5.0142982480        3.1812973865       29.8203425529
  C         7.4690287285        1.9783068111       20.0058273339
  C        10.1253757938        1.8619574418       20.6361053194
  C         9.5785832101        4.4007638298       18.6101933025
  C         9.6449702528        5.7677926228       18.4280567874
  H         1.7451193719        5.1028313746       26.0464094232
  H         3.3905166420        4.8331448333       26.8611976358
  C         1.7864790908        5.6873755104       28.0044595643
  S         6.3747581657       -2.4344151846       28.5527567197
  N         5.8966619537       -2.0260344504       30.0841659488
  C         5.2438308694        0.0463435034       31.3562629775
  H         4.9302940833        2.1163386432       31.9997724873
  H         7.0373326177        1.2808675227       20.7726529254
  H         7.7962515753        1.4249145801       19.1410352433
  C         6.3101256161        2.8993995665       19.5819812753
  H        10.4179615980        1.5085117884       19.6102724715
  H        10.0523566426        0.9757680977       21.2947164303
  C        11.3854369819        2.6185013819       21.1943453216
  H         9.7814490739        3.6604493235       17.9161774400
  C        10.0105877952        6.4964337084       17.1655804991
  H         0.8890033147        5.1188747156       28.0865801732
  H         1.4182771553        6.7066490782       27.9571340463
  C         2.5932663505        5.4358275103       29.2308121607
  C         5.0893103876       -0.6481683340       32.5863062703
  H         6.5928458512        3.4735806919       18.7171128800
  H         6.0121100311        3.5317628274       20.4660499979
  C         5.1665822717        2.0685950450       19.0698487132
  H        11.2281872717        2.8408820611       22.2399096569
  H        11.6472061750        3.5360886438       20.6268554994
  C        12.6456553600        1.7637019770       21.1708786209
  C         9.9531846234        7.8830225105       16.9648746974
  C        10.1619014004        5.6104585486       16.0014417040
  H         2.5527752319        4.4068967289       29.3876804116
  H         3.7017723016        5.6529989734       29.2172558122
  C         1.9659205945        6.1074294446       30.4251219331
  H         5.2247446929       -1.7335267355       32.5921646832
  C         4.7549346241       -0.1692453712       33.8546042316
  H         5.0385396733        1.3019194627       19.9120303771
  H         5.5614269134        1.5919834836       18.2277286450
  C         3.8123805532        2.7585579311       18.7512234370
  H        12.6398578231        1.1822359516       22.0996364913
  H        12.6594283852        0.9866481161       20.3794858383
  C        14.0143005742        2.4898425950       21.1608949348
  N         9.8215583878        8.8334026033       18.0383862997
  C        10.1441660695        8.4391650061       15.7053706983
  C        10.3138088103        6.1423232362       14.7469781462
  H        10.1467638575        4.5190581416       16.1329522223
  H         1.3779374975        7.0078970207       30.2654101806
  H         1.3576731775        5.3692990219       30.7993801625
  H         2.6411040543        6.3470376747       31.2103011842
  S         4.4145229619        1.4263777341       34.3212180587
  C         4.7446277566       -1.1603564979       34.9435795758
  H         3.6078386474        3.5573507467       19.4890619209
  H         3.8737804214        3.3230682596       17.8043437692
  C         2.6627612346        1.8394078919       18.6892202167
  H        14.1306152683        3.1299617015       20.2804573291
  H        14.8170847605        1.8057250752       20.8136334916
  C        14.2847724326        3.2076990708       22.5252795300
  S         9.8495650873       10.2567678249       17.3390787093
  N        10.1305881526        9.8362937160       15.7826322814
  C        10.3301608959        7.6400835181       14.5538746587
  H        10.3879769442        5.4624563438       13.8452469421
  C         4.3131515137        0.8466212735       36.0168514959
  N         4.3461910862       -0.5495854421       36.0588942392
  O         5.0219825899       -2.3279769989       34.7944496448
  H         1.7975998998        2.5435948196       18.8194216337
  H         2.6814900791        1.1441867514       19.5186038493
  C         2.4969601935        1.0547904480       17.3837961748
  H        15.0289089914        3.9901205309       22.3043075800
  H        13.4396396750        3.7991292174       22.8152910297
  C        14.8560254223        2.1050538613       23.3919212415
  C        10.6118645341        8.3310974427       13.3055308072
  S         4.0306957224        1.9316435163       37.3422675438
  C         4.2592284788       -1.1390092154       37.3674692569
  H         2.0451047258        1.7337457193       16.6429034072
  H         3.4398565289        0.5680629509       17.1900211643
  C         1.5242171218       -0.0636971466       17.6509029253
  H        15.0382032179        1.1520763266       22.7676233217
  H        14.1407939350        1.8799444188       24.1670809229
  C        16.2058151196        2.5674815973       23.9451031168
  H        10.3023245030        9.3568527175       13.2866460307
  C        11.1175079634        7.9076232051       12.0832794444
  H         3.5424480751       -0.6409866820       37.9728775717
  H         3.7054749542       -2.0967226392       37.3048240993
  C         5.6053363612       -1.2436793068       38.0464198506
  H         1.0187328142       -0.1779861704       16.6875955163
  H         0.8004568676        0.1985686693       18.4454799338
  C         2.3423560700       -1.3453988982       17.9978739925
  H        16.1526351746        3.5345627225       24.5465588305
  H        16.5505214005        1.7671014979       24.5904655005
  C        17.2762883063        2.7436922715       22.8906266506
  S        11.6611866047        6.3513062717       11.8616880547
  C        11.1507365968        8.7824972337       10.9153551210
  H         6.4724296181       -0.8835915871       37.4617032416
  H         5.6476174826       -0.7181476100       39.0693085049
  H         5.8243555019       -2.2815936642       38.2519368229
  H         3.1422962461       -1.0868103340       18.6602032986
  H         2.6617744275       -1.7420124563       17.0452197075
  H         1.7210951740       -2.0979837180       18.4807245731
  H        18.1765155697        2.1849053866       23.1633198758
  H        17.3576863895        3.8399152636       22.6679504165
  H        16.8805896504        2.3517925792       21.9134168806
  C        11.8018548306        6.8226355620       10.1327333532
  N        11.4766219780        8.0892625689        9.8088817223
  O        10.7900303524        9.9897098305       11.0349247531
  S        12.5992107186        5.9847434850        8.8541794182
  C        11.6111657831        8.7212008904        8.4641112690
  H        12.6832210396        9.0542238818        8.2860425550
  H        11.3857883211        8.0450703972        7.6702648887
  C        10.5943118262        9.8760557502        8.1529572672
  H         9.6490712436        9.8869769489        8.6430345395
  H        11.0233613047       10.8024455418        8.4622210731
  H        10.4806159759        9.9607605320        7.0740762710
  H        -3.5215318195       15.0289336904       16.1391525086
  C        -3.1816037456       14.0202178252       16.2675658024
  H        -4.0894521771       13.5056715924       16.4732782310
  C        -2.1720967382       13.5809987289       17.3322656080
  C        -2.7958152147       13.4280641588       14.9292262269
  C        -2.6141826158       13.9800951255       18.7589082287
  H        -1.9446112674       12.5107205892       17.2976776756
  H        -1.2350207553       14.0581452034       17.0435843653
  H        -1.7097833306       13.5023128964       15.0202409676
  H        -2.9847859601       12.3771479194       14.7726430102
  H        -2.9751236056       14.0485430473       14.0506851478
  C        -1.7386846585       13.3722711324       19.8217976622
  H        -3.6899922739       13.8552796156       18.8739231540
  H        -2.5009354473       15.0826546418       18.8611026766
  C        -2.1356913052       13.8277997368       21.2177422581
  H        -1.6172193992       12.3081110475       19.6494236871
  H        -0.6962649393       13.7156694088       19.6502495644
  C        -1.1869906250       13.2592635967       22.3029256578
  H        -3.1445249006       13.3764312483       21.4361859527
  H        -2.1952711053       14.8909232126       21.3469907234
  C        -0.0041940305       14.1599318530       22.4752313884
  H        -1.6458708608       13.1284740289       23.2832355264
  H        -0.8971602640       12.2089351402       21.9817311859
  C         1.2513867587       13.4382808974       23.1883844396
  H         0.4526780164       14.5596200235       21.5785228122
  H        -0.2688811382       14.9408561415       23.2290679373
  C         1.6231801860       12.1550338663       22.4305664594
  C         0.8345712342       12.6734741389       24.3839017735
  C         2.5170876964       14.3107689208       23.3510029881
  C         1.3612202370       11.0408373151       23.2009782899
  C         2.1376576077       11.8286235017       21.1946339742
  C         0.9031299641       11.3414989934       24.4532369105
  C         0.4213900131       13.2991657416       25.5958821939
  H         2.8758629695       14.7546272186       22.4164930194
  H         2.1701801053       15.1058353805       24.0092460683
  C         3.7744809496       13.5338204611       23.8822547745
  S         1.6437763004        9.5358449199       22.4054594580
  C         2.1828409535       10.4795985330       21.0663824705
  H         2.3798186634       12.6123612221       20.5196284794
  C         0.6310863471       10.6992170994       25.6224552823
  H         0.4225406831       14.3974655776       25.7531000524
  C         0.0678875454       12.5759950811       26.6848677461
  H         4.0020618196       12.7188477307       23.2070600136
  H         3.5557869303       13.0643888097       24.8334681279
  C         4.9764169994       14.4957192296       24.1508736177
  C         2.6148696881        9.7417328796       19.7939011173
  C         0.1776611577       11.2503797344       26.7471769086
  H         0.6612870971        9.6406372570       25.7433112933
  C        -0.4145775853       12.8975819928       27.9253883811
  H         5.5256562551       13.8366279698       24.7543383612
  H         4.6557722052       15.3910435868       24.7603619804
  C         5.7681790504       14.8435859028       22.8725519333
  C         2.4687006874        8.3872295573       19.5633546530
  C         3.0252175210       10.5106081505       18.5816320634
  C        -0.1434479388       10.5178415196       27.9781849199
  C        -0.4502720415       11.8002910005       28.7464763387
  S        -0.6347972653       14.3029782996       28.7109316342
  H         6.6007782476       15.4519964937       23.1409196768
  H         5.1175969891       15.6274059961       22.4171530109
  C         6.1755527024       13.7159901140       21.8421997663
  N         2.0837030036        7.4160769804       20.4636119302
  C         2.7348037499        7.7599303183       18.3340589953
  C         3.2136007903        9.9249871910       17.3468047341
  H         3.2456765041       11.5939310568       18.6773793097
  C         1.0381424284        9.7018058750       28.6404644366
  C        -1.4142212842        9.6016616739       27.7696628502
  C        -1.0257505884       12.1331747483       29.9967380573
  C        -1.0959262664       13.5002107495       30.1802440576
  H         6.5620283782       12.8659341342       22.3825184096
  H         5.1914527322       13.3400704053       21.4356437649
  C         7.0298066993       14.1488390261       20.6573788829
  S         2.1932372290        5.9132295435       19.7986126198
  N         2.6949030401        6.3580348861       18.3557952347
  C         3.0988601162        8.4640300576       17.1374027284
  H         3.4399333569       10.5278557353       16.5520899492
  H         1.4836215508        9.1267229617       27.8569020790
  H         0.7574262108        8.9400106611       29.3285238803
  C         2.1257129635       10.5553376320       29.3315206465
  H        -1.1949185463        8.7781698768       27.0978897444
  H        -1.7926213848        9.3353573205       28.7011647813
  C        -2.6060936912       10.3953319083       27.1091664585
  H        -1.2249601209       11.2966169603       30.7160079931
  C        -1.4635174631       14.2640957528       31.4267909197
  H         7.7243681979       13.4551149735       20.2873201724
  H         7.7668748392       14.9678837520       20.9074874292
  C         6.1400160922       14.6671830015       19.4683991321
  C         3.2253313550        7.7048976959       15.9249169382
  H         2.5489953812       11.3002970123       28.5937404015
  H         1.6997101106       10.8800494170       30.2681364627
  C         3.3386648649        9.6802555048       29.7203308892
  H        -2.2178937545       10.8778010997       26.2135381658
  H        -2.8829391359       11.1078265729       27.8789102392
  C        -3.8983258209        9.6784843133       26.7798269489
  C        -1.5087232025       15.6429915757       31.6963990021
  C        -1.6935573814       13.3520735178       32.6194710543
  H         5.1817381467       15.0791921483       19.8827308274
  H         6.6469545129       15.4210173674       18.8176303545
  C         5.8122875273       13.5063262988       18.4688433706
  H         3.0359813431        6.6813977566       15.9596429871
  C         3.5993745025        8.1127165861       14.6461298878
  H         3.6387125325        9.2482565354       28.7691986186
  H         3.0589686797        8.9476234336       30.4813651620
  C         4.5455585667       10.4554756232       30.2949961494
  H        -3.7271907090        9.1005100625       25.8908411334
  H        -4.2153785492        9.0108757524       27.5821777343
  C        -5.0412136980       10.6247581007       26.6244143411
  N        -1.2418748724       16.5550965941       30.7117356255
  C        -1.9587922088       16.1985022880       32.8967111959
  C        -1.9939787036       13.9284297262       33.8554127278
  H        -1.4431516464       12.2411710624       32.5667795938
  H         6.8101215553       13.1061059065       18.3058151271
  H         5.3078356947       12.7280616779       19.0883905272
  H         5.2575054385       13.8349515339       17.5549134836
  S         4.0597500559        9.7285599667       14.1594006922
  C         3.7619057703        7.0362350642       13.6426645027
  H         4.8301391672       11.2560211244       29.6351203422
  H         4.4285349181       10.9766379771       31.2803080952
  C         5.7531511992        9.4626806691       30.4047748288
  H        -4.6662650256       11.5491492243       26.1951755609
  H        -5.4488029132       11.0257056507       27.6025792301
  C        -6.2124662019       10.0318891434       25.6942161217
  S        -1.5622128742       18.0635635190       31.3196099272
  N        -1.9220375452       17.6022529034       32.8392286558
  C        -2.2289270937       15.4373930323       33.9945063717
  H        -2.0100483290       13.2683274861       34.6679449512
  C         4.1843093088        9.0435075571       12.5432412413
  N         4.1953459666        7.6841181221       12.4981723067
  O         3.3877696862        5.8438059273       13.7380803920
  H         6.6833692186       10.0576853379       30.4736363206
  H         5.8881910713        8.8592243300       29.5582506616
  C         5.7475597003        8.5965741673       31.6503754213
  H        -5.7793876799        9.8289395712       24.7647833806
  H        -6.6084498697        9.1257690580       26.1422982340
  C        -7.4162109249       11.0490830755       25.5148608113
  C        -2.6087508782       16.1267421336       35.2039991319
  S         4.6475127438        9.9500277486       11.0928547581
  C         4.2001906510        7.0222621434       11.2123721362
  H         5.9601238688        9.0302382681       32.6627692015
  H         4.8108213589        8.0512735604       31.9536890610
  C         6.8114531768        7.4624335665       31.6900201375
  H        -7.5077756501       11.1653426520       24.4040843708
  H        -6.9825257005       11.9740318938       25.7782533647
  C        -8.7135018652       10.7698277639       26.3186491537
  H        -2.1578021749       17.0656815090       35.3328893251
  C        -3.0173653423       15.6786154301       36.4641219263
  H         4.9679882879        7.4162754202       10.5371070751
  H         4.4013109935        5.9888197475       11.4961225009
  C         2.8290831415        7.0106089980       10.4407943783
  H         7.3411254038        7.4905160274       32.6157273418
  H         7.5123585015        7.5921826633       30.9220959451
  C         6.2808741121        6.0543758037       31.5202446995
  H        -8.5076234923       10.6412929240       27.3336919167
  H        -9.2747067999       11.7076194497       26.3557612020
  C        -9.4938613952        9.6005561607       25.8307953852
  S        -3.5604984790       14.1261473736       36.9774237245
  C        -3.2074229188       16.7317153758       37.4528278793
  H         2.7193009231        6.0612345192        9.9302578388
  H         2.0500360372        7.0464296689       11.2053562715
  H         2.7270516411        7.8912287776        9.8088201906
  H         5.5161571612        5.8234367322       32.2909276644
  H         7.0402833120        5.3059422586       31.5993573210
  H         5.9039381099        6.0012404395       30.5065798072
  H       -10.5281693239        9.9250953409       25.7365043646
  H        -9.4447913695        8.8156134252       26.5420966373
  H        -9.1286556512        9.1955387411       24.8798181896
  C        -4.0929031761       14.8484615603       38.5402801139
  N        -3.8030229214       16.1648359902       38.5326716462
  O        -3.0188553974       17.9410274755       37.3378479291
  S        -4.5993603309       13.9454493150       39.9893948167
  C        -3.9130123709       16.9988373006       39.7403242823
  H        -4.1592025000       17.9692698282       39.6205002172
  H        -4.7306994268       16.6572495559       40.3299011087
  C        -2.5774146272       16.8579360708       40.4638023513
  H        -2.2473630680       17.7070737837       41.0525718863
  H        -2.5139433230       15.9605355747       41.0964666178
  H        -1.7056342932       16.7753416696       39.7540285113
