352
 i =    81300, time =    81300.000, E =        25.3473871593
  H         9.7762309328        6.9418319708       31.1702410268
  C        10.8429850668        6.8232331509       31.3982467540
  H        11.3252183084        7.8291689375       31.4769418085
  C        11.5457941240        6.0513009401       30.2033117095
  C        11.0985699244        6.0230092032       32.6660372369
  C        10.6178423901        4.9048416211       29.6904175986
  H        11.9790729961        6.6849740100       29.4083669522
  H        12.4019168939        5.5018566534       30.5530692985
  H        12.1265599966        6.2798369615       32.8888949356
  H        10.6605524167        6.4267639059       33.5774576037
  H        11.1237127674        4.9416307686       32.5652055048
  C         9.7709882965        5.4429577827       28.5008584259
  H         9.9805357285        4.4165400096       30.4544179286
  H        11.3718681898        4.2164528749       29.3270418379
  C        10.5628582805        5.4890734546       27.2050557986
  H         8.7948674372        4.9377221976       28.4179379900
  H         9.3497762181        6.4347715949       28.5972207453
  C         9.6750344241        5.0544955401       25.9555281103
  H        11.4626733961        4.8529610554       27.2728820309
  H        10.7865404383        6.5824181532       27.0699540874
  C         8.4858879956        5.9586755895       25.6739459062
  H        10.2743168112        4.8726621598       25.1140258213
  H         9.3702734508        3.9936331933       26.2381266588
  C         7.3936284938        5.1761920686       24.8806861795
  H         8.0263277759        6.3612624008       26.6211546235
  H         8.8535531688        6.7865081223       25.1461333297
  C         7.0554076791        3.7733975367       25.6380747791
  C         7.8718352198        4.3618993565       23.8098477976
  C         6.1701633852        6.0171043924       24.3819158628
  C         7.3010013786        2.6412197702       24.8920888823
  C         6.6174962340        3.4217344189       26.9304822262
  C         7.8251915472        3.0428102969       23.6816393587
  C         8.3496710919        4.9993749523       22.6274790413
  H         5.5612068202        5.3222967386       23.7936831990
  H         6.4706115520        6.8809801178       23.7979529726
  C         5.1876365209        6.3207919095       25.5771229968
  S         6.9265638724        1.1629914386       25.6542698076
  C         6.3903027494        2.0411808332       27.0963536649
  H         6.3954419836        4.1783684797       27.6720052017
  C         8.2829863075        2.4210186834       22.5499511202
  H         8.4045137008        6.0831921424       22.5688800531
  C         8.7909393248        4.3702758146       21.4652355517
  H         5.0774210923        5.4265384332       26.1977826139
  H         5.5345353040        7.2576244225       26.0076209801
  C         3.8797399803        6.5446369841       25.0252736866
  C         6.0623788515        1.4536149602       28.4530685441
  C         8.8226974417        3.0274634470       21.3607199980
  H         8.3092497501        1.2998525846       22.5889076357
  C         9.1655416818        4.8286000861       20.2448473232
  H         3.5487264273        5.6298158262       24.3992578860
  H         3.7722656435        7.3477926985       24.3234271379
  C         2.8064692316        6.6886870603       26.1385969817
  C         6.0333627329        0.0908144111       28.8529201530
  C         5.7466424969        2.3726603071       29.6349701354
  C         9.1766533361        2.3642115587       20.0316703246
  C         9.5162857110        3.7431388400       19.4305449158
  S         9.4412619677        6.4053897229       19.6041317837
  H         2.0067189117        7.2726098762       25.9245776319
  H         3.2667727395        7.0829918667       27.0680222212
  C         2.1837233444        5.3697783906       26.4924282814
  N         6.3700114912       -0.9402480570       27.9344791489
  C         5.7874928952       -0.4036032677       30.1253558995
  C         5.3383391023        1.8882932537       30.8645941130
  H         5.5688798583        3.4484794291       29.4330191879
  C         7.9501213361        1.6417651657       19.4032930351
  C        10.5456063082        1.4374876517       20.0686122777
  C         9.9759184064        4.2257304599       18.2080524583
  C         9.9315253505        5.6020239000       18.1748385549
  H         1.7559017956        4.8989931067       25.6144013627
  H         3.0874605846        4.7339939043       26.6396397262
  C         1.0489367458        5.4543479005       27.5780819333
  S         6.3154944500       -2.3545390131       28.7383229925
  N         5.8040429813       -1.7881759339       30.2032779575
  C         5.3649288458        0.4496411097       31.1643265373
  H         4.9143919555        2.5514032413       31.5455330969
  H         7.3898650495        0.9879387530       20.0670483121
  H         8.3262524690        0.9827758616       18.5550975475
  C         7.0138649482        2.7324922556       18.8934139394
  H        10.7227722666        0.9271131105       19.0869492830
  H        10.1750825266        0.7347386331       20.7741760063
  C        11.7946154392        2.2386825660       20.5411351658
  H        10.2652360950        3.5654582963       17.4008116248
  C        10.2903298570        6.3918282640       16.9320150533
  H         0.2751977365        4.7190027331       27.3912483974
  H         0.5513251718        6.4341745933       27.4986539873
  C         1.5548836438        5.1329914284       28.9317234667
  C         5.0280359611       -0.1578912556       32.3919574878
  H         7.3523060082        3.2607971839       18.0668984225
  H         6.8660775890        3.5170640241       19.6760262943
  C         5.5189135248        2.3713217363       18.6557278239
  H        11.4525730788        2.9691749532       21.2630107956
  H        12.1615149841        2.8498656968       19.6709003570
  C        12.9179193156        1.4500871977       21.0627162149
  C        10.3812646726        7.8325978993       16.8046448132
  C        10.5798785911        5.6248047562       15.6863019628
  H         0.9807442819        4.3573964888       29.3807894400
  H         2.5373386687        4.6475178569       28.7708291904
  C         1.5287582150        6.3671554908       29.7819132215
  H         4.8147682356       -1.1692534048       32.3120505484
  C         4.7580940487        0.2696956420       33.6843261214
  H         5.0152125035        3.2885001261       18.6598366924
  H         5.1021324659        1.8028639250       19.4956487112
  C         5.4722252012        1.5596395595       17.3198836738
  H        12.6861346869        0.8577239803       21.9695514984
  H        13.2929483513        0.7276219012       20.3481350885
  C        14.1218910024        2.3291108004       21.4709479852
  N        10.0734900281        8.7722454893       17.8013495757
  C        10.6839063028        8.4614139731       15.6193314570
  C        10.9005631926        6.2622864447       14.4406404037
  H        10.5933988693        4.5025061605       15.6977373518
  H         0.5218270567        6.8020263308       29.6827317333
  H         1.7076171085        6.0987155044       30.8349124336
  H         2.3290359807        7.0468467006       29.4097529902
  S         4.5437036960        1.8892952001       34.2266569287
  C         4.5571222668       -0.7795146946       34.7538265436
  H         5.7182163743        2.1229561539       16.3448807226
  H         6.2626524313        0.7989572450       17.2997225504
  C         4.0644104128        0.9177241517       17.0869250987
  H        13.8397096874        3.2709941136       21.8981360128
  H        14.6236656253        2.5394871369       20.5777442455
  C        15.0612711788        1.5786000544       22.4067021301
  S        10.0151004859       10.2448957777       17.1277208828
  N        10.7426845968        9.8806533856       15.6893658581
  C        10.9784995922        7.7742964583       14.4084713106
  H        10.9670972652        5.7478289704       13.4900481373
  C         4.2894806611        1.1424148942       35.8287744663
  N         4.2267584515       -0.1978602485       35.9063614678
  O         4.6519031064       -2.0014257827       34.5243024844
  H         4.1353641332        0.7902192336       16.0124227095
  H         3.2675033894        1.5765036506       17.3324108579
  C         3.8593387784       -0.3553173159       17.9945752991
  H        14.5382645933        1.2389398721       23.3088904137
  H        15.3891805796        0.6895435739       21.8622149683
  C        16.1540776278        2.5664007330       22.7773502599
  C        11.4694249956        8.4939791743       13.2170685393
  S         4.0026247986        2.0600957794       37.3010389469
  C         3.8914718305       -0.8907782562       37.1580597632
  H         4.5293868373       -1.0892749128       17.5020451434
  H         4.1360827278       -0.2224573087       19.0165136968
  C         2.3462354519       -0.7963165201       17.9065262126
  H        15.6507918337        3.2185572127       23.4412143742
  H        16.4755953858        3.1060805098       21.9593921545
  C        17.1502412248        1.9751868612       23.6852569614
  H        11.0884858720        9.5543639844       13.2508871367
  C        12.1177422151        8.1640965466       12.0481488199
  H         3.1968748194       -0.4664790504       37.8315819688
  H         3.5816689627       -1.9052899951       36.8576993452
  C         5.1512692915       -1.1312613630       37.9562930575
  H         1.7217463642        0.1108773297       18.1537083453
  H         2.0672136902       -1.4570287959       18.7050138636
  C         1.9500039603       -1.5455053894       16.6172018889
  H        17.3337567612        2.5702516368       24.5732169625
  H        16.8281390387        1.0261917669       24.0604832620
  C        18.3991972575        1.7197243780       22.8864896064
  S        12.7276192243        6.5802186957       11.6726148320
  C        12.1977936088        9.1980485838       10.9466130502
  H         5.3298796368       -0.3945851539       38.6857049290
  H         5.0908250596       -2.0158086538       38.6182115251
  H         6.0446098260       -1.2043125315       37.3134351689
  H         2.8560727111       -2.1052649206       16.2503387094
  H         1.5632305700       -0.7929721527       15.8833803305
  H         1.2012311003       -2.2508970048       16.8863955512
  H        19.0839570133        2.5585710349       22.8799115177
  H        18.3081879583        1.3915488800       21.8694303941
  H        18.9181089321        0.9942712202       23.4589073406
  C        13.1166765770        7.2732251611       10.0924373129
  N        12.7901848294        8.5939630106        9.9109958508
  O        11.9941915182       10.4447497723       11.0928958542
  S        13.8345220744        6.2995748101        8.8404824350
  C        12.9182291513        9.3799935753        8.7170435043
  H        13.4200269479       10.2998528802        8.9603580832
  H        13.4580995793        8.7773186814        7.9519742451
  C        11.4512525740        9.5811714599        8.1611381619
  H        10.7747364393       10.2323589031        8.7120824894
  H        11.5369271354        9.9670411931        7.1416114860
  H        10.9058736440        8.6180921242        8.2121211054
  H        -0.8475655887       14.5188729075       15.7818226764
  C        -1.9433283307       14.3843145411       16.0241497483
  H        -2.6012674595       15.2563874419       16.0408559568
  C        -2.0518465704       13.5479558899       17.3554935761
  C        -2.4946707293       13.3683006684       14.9876454603
  C        -1.3604097347       14.3118422257       18.4574290287
  H        -3.1098714113       13.3756934917       17.6235156340
  H        -1.5846467570       12.6319846971       17.1322350305
  H        -2.1092883831       12.3262055428       15.0875687640
  H        -3.5531656140       13.2066209525       15.0195212617
  H        -2.2072273249       13.7273775613       13.9544751320
  C        -0.9931592442       13.4737860547       19.6218752539
  H        -1.8934474313       15.2209241034       18.7958978387
  H        -0.4093475982       14.6610763420       18.0427569375
  C        -1.7471643966       13.7383597234       20.9290265178
  H        -1.1899752819       12.4494845350       19.3919523645
  H         0.0964405715       13.4199783970       19.7103262375
  C        -1.0805780181       13.1848108028       22.2188863514
  H        -2.7604493956       13.4234277540       20.9310402808
  H        -1.9327390724       14.8206309355       21.1362747204
  C         0.1595174501       13.9789884121       22.5926110399
  H        -1.7215983229       13.0733140870       23.0591688844
  H        -0.8497913301       12.1338120247       21.9867583327
  C         1.3372191020       13.3485296185       23.3894061542
  H         0.7289209410       14.2161545618       21.6658004159
  H        -0.1150795137       14.8700876940       23.1330492267
  C         1.7099276131       12.0438502172       22.6480437492
  C         0.8941460626       12.5222149957       24.6204156466
  C         2.5643166245       14.2050544163       23.7648078299
  C         1.3812582380       10.9061582695       23.3288847489
  C         2.2350037011       11.8364580997       21.3911614621
  C         0.8177227525       11.2152244071       24.5945304430
  C         0.4667269231       13.1504515096       25.7638632223
  H         2.9651600662       14.6920996583       22.9077741399
  H         2.3633013013       14.9924254333       24.4938978963
  C         3.8086183987       13.4054978457       24.0853916299
  S         1.7967764551        9.4788277109       22.5069014989
  C         2.3554955949       10.4897390745       21.1787863376
  H         2.5491612104       12.5740703937       20.6945370685
  C         0.3420563121       10.5722795228       25.7264790565
  H         0.4863231328       14.2190336194       25.8915767300
  C         0.0245425661       12.4920836004       26.9013253824
  H         3.9906579730       12.5557214298       23.4726893756
  H         3.7042625766       12.9149078528       25.0390642033
  C         5.0851498540       14.3157863497       23.9870330306
  C         2.8724307545        9.8741625651       19.8799707668
  C         0.0117022523       11.1883397779       26.9602377768
  H         0.4390913562        9.4712805609       25.7665214206
  C        -0.4799879492       12.8690589787       28.1394993783
  H         5.7607548829       13.8936991889       24.7330864924
  H         4.8032610992       15.3300782273       24.3004662042
  C         5.8668575210       14.3417217485       22.6497348364
  C         2.8968586581        8.5103676269       19.6463231964
  C         3.2089285923       10.7161166254       18.7512259224
  C        -0.4394651543       10.4081368492       28.2004159297
  C        -0.7059963441       11.7602140845       28.9767700556
  S        -0.8016075473       14.3706885827       28.9166292687
  H         6.7359330553       14.9507280347       22.6795744709
  H         5.1120510035       14.8021166755       21.9952714070
  C         6.4704206913       13.0073879445       22.0664769211
  N         2.5496154585        7.5384225352       20.5706019141
  C         3.1414152839        7.9506819073       18.4104134030
  C         3.5887311835       10.1937786745       17.5158582348
  H         3.2299804405       11.7658471818       18.9055780396
  C         0.7269130688        9.6064692923       28.7753778954
  C        -1.7400811285        9.5676222643       28.0535957305
  C        -1.1942198271       12.1661166964       30.2142362489
  C        -1.2308502094       13.5154924867       30.3403951102
  H         7.1495353788       12.5728528273       22.8091728162
  H         5.6491317755       12.3163539365       21.8638083628
  C         7.3454744454       13.2125000111       20.8816538125
  S         2.4184243554        6.0564751671       19.9194631381
  N         2.9174885142        6.5359624969       18.4451686648
  C         3.5508616580        8.7340098050       17.3129834042
  H         3.9180193511       10.8129025765       16.6934300154
  H         1.2374451291        8.9675138189       28.0764276716
  H         0.4157053929        9.0473479275       29.5744428055
  C         1.9258269173       10.3901901780       29.3130960501
  H        -1.5758742433        8.5792295085       27.5408672784
  H        -2.0138730268        9.2878675026       29.0736064902
  C        -2.9304484803       10.3766930839       27.5387842716
  H        -1.3209308733       11.4765719172       30.9787880581
  C        -1.6071740490       14.2571627263       31.6217751692
  H         7.8850577870       12.2063657337       20.9814324344
  H         7.9334353844       14.1632759470       20.9423387483
  C         6.5807716928       13.2571139064       19.5172035590
  C         3.6838663237        7.9836501443       16.1194418229
  H         2.2052915798       11.2994319760       28.7141668855
  H         1.5328870014       10.8423266253       30.2012952111
  C         3.1032130954        9.5268439938       29.8011710235
  H        -2.6034761572       10.9412246939       26.7397511396
  H        -3.3687219033       11.0797141942       28.2511838906
  C        -4.1060493469        9.5347464881       26.9898831900
  C        -1.4779530487       15.6578481856       31.8626787711
  C        -2.0120649350       13.4449101679       32.8166740357
  H         5.8504504855       12.4312124989       19.4822684898
  H         5.8994555976       14.1096863395       19.5674906879
  C         7.3505213875       13.0737879654       18.2417406357
  H         3.3682549827        6.9409875597       16.2292747569
  C         3.9969394120        8.4192147970       14.8454664424
  H         3.4071456733        8.7727286908       28.9986425369
  H         2.8507165270        8.8721485852       30.6671802715
  C         4.3637011392       10.2267332280       30.1967491421
  H        -3.7974438166        8.7983382743       26.2747266472
  H        -4.5286879839        9.0716761769       27.8509169798
  C        -5.1940838685       10.3780692578       26.3391099706
  N        -1.1223086059       16.6255492293       30.9078792791
  C        -1.8619643287       16.2513388602       33.0623225136
  C        -2.1908482190       14.0709951221       34.0375144774
  H        -2.0461033502       12.3763608334       32.8023959245
  H         7.9543091865       12.2452283585       18.3139397248
  H         6.6738830696       12.9575498122       17.3839517459
  H         7.9548420970       13.9279269149       17.9846435000
  S         4.5562769635        9.9434050886       14.3436361782
  C         3.9544310739        7.4019366495       13.8051255945
  H         4.9322379521       10.7029854528       29.4125029875
  H         4.1137616344       11.0023672841       30.9269899099
  C         5.4575234618        9.3119513691       30.8217084235
  H        -4.8355301171       11.1195610013       25.6202879316
  H        -5.6007871456       10.9205733552       27.1507028647
  C        -6.2016065303        9.4782067641       25.7245164303
  S        -1.1443604712       18.1209801849       31.6209488364
  N        -1.7131423025       17.6713825196       33.0577389212
  C        -2.2237510346       15.5732177805       34.2386664538
  H        -2.3132476059       13.3774690723       34.8098282423
  C         4.4997994829        9.3022633846       12.7366781409
  N         4.3269927535        7.9048059819       12.6621181703
  O         3.7687797355        6.1771563188       14.0400455918
  H         5.1319955106        8.7540347064       31.6954092409
  H         6.1505808811       10.0896677920       31.1689496017
  C         6.1323359191        8.4469532035       29.7932713754
  H        -5.7553564900        8.9896824464       24.8272032746
  H        -6.5888673548        8.6646530077       26.3908431744
  C        -7.3477361789       10.3710217985       25.2245724367
  C        -2.4806403842       16.2290043111       35.4589681029
  S         5.0938674005       10.1328449008       11.3190020606
  C         4.2375898569        7.1670985255       11.4312651531
  H         6.0075319082        8.7776586904       28.8066274794
  H         7.1649836637        8.3501680968       29.9589493110
  C         5.5841999639        6.9983867231       29.9163661933
  H        -6.9083234607       10.9028177924       24.4996086750
  H        -7.6208881250       11.0860583574       26.0593237084
  C        -8.7280162595        9.8144165755       24.7997904430
  H        -2.2340926826       17.2929147131       35.4052252327
  C        -2.9565657532       15.8010202701       36.6728838804
  H         4.9693512323        7.5691861397       10.7344711708
  H         4.5788351208        6.0998104789       11.5939727630
  C         2.7866913702        7.1405526525       10.9124850736
  H         5.4624200663        6.4806513027       28.9808088157
  H         4.6011165187        6.9635525073       30.4689693181
  C         6.6481059144        6.1626790566       30.6961503878
  H        -9.1669889772       10.5222565155       24.1086569273
  H        -8.5302646386        8.8501334281       24.3291089650
  C        -9.7309413539        9.5801313648       25.8975162529
  S        -3.7908546039       14.3211163182       36.9090413282
  C        -3.0035401719       16.7393191520       37.8184024331
  H         1.9881710254        6.8336136381       11.5909472123
  H         2.5917815528        8.0499254706       10.3746408307
  H         2.7057330009        6.4404258331       10.0966563956
  H         6.6026345640        6.2197554849       31.8001829987
  H         7.6382022180        6.2836000820       30.1666166386
  H         6.4380987756        5.0837904865       30.4643452056
  H       -10.5332218083        8.9763911781       25.5049565146
  H       -10.1299843458       10.6008638053       26.1732787995
  H        -9.2860290718        9.0226202158       26.7256745601
  C        -3.8360490749       14.8523822729       38.5707533161
  N        -3.5869800591       16.1729823568       38.8551075093
  O        -2.6028147217       17.9041483961       37.7404017945
  S        -4.5200756196       13.9254131382       39.8097576009
  C        -3.8118280242       16.8626931383       40.1129200578
  H        -4.1692134365       17.8791886915       39.9299548835
  H        -4.4384467851       16.3312101253       40.8018645082
  C        -2.5017990423       17.0796840597       40.8647720996
  H        -1.9680145817       17.9841923125       40.6049268314
  H        -2.6367745962       16.9092931157       41.9423557462
  H        -1.7512585350       16.4033508741       40.4879818984
