352
 i =    78300, time =    78300.000, E =        25.0054139839
  H        10.7399487138        6.9824931392       31.7574625766
  C        11.5943344578        6.2638284513       32.0877223961
  H        12.2618396589        7.0688806558       32.4904844224
  C        12.4153618672        5.5494119274       30.9399652371
  C        11.3526284963        5.2977725961       33.2533425770
  C        11.4401763729        4.8244171220       30.0046561770
  H        12.9003869912        6.3205202424       30.3804485225
  H        13.1581352669        4.8839024180       31.4145907397
  H        12.2770724575        5.0892638285       33.7832532125
  H        10.7346809244        5.6476707222       34.0672132051
  H        10.8753712902        4.3763202355       32.9521356078
  C        10.5853934262        5.7678554257       29.2136969923
  H        10.7423080287        4.2238050718       30.5317987613
  H        11.9198158969        4.1502265362       29.3448868246
  C        10.8800344567        5.7479204929       27.7026347421
  H         9.5317828221        5.5543960928       29.3212973938
  H        10.7708780547        6.7951732914       29.5620201046
  C         9.8460935082        5.0522525293       26.8149091101
  H        11.9330595735        5.3158377407       27.5473270478
  H        10.9005525189        6.7594527898       27.3428400442
  C         8.6520759865        5.8966440365       26.3574526216
  H        10.3348184421        4.5415492711       26.0247323958
  H         9.4975390597        4.2241948179       27.3479190556
  C         7.5886141765        5.1209421157       25.5958669802
  H         8.0621245896        6.4114059793       27.1558762640
  H         9.0079792181        6.7136224202       25.6999909992
  C         7.2581123373        3.7824517638       26.3194382035
  C         8.1641536660        4.3121210815       24.3840548186
  C         6.3282428849        5.8131187620       25.0468150035
  C         7.4638258441        2.6245168179       25.5681920166
  C         6.7698692536        3.5005033838       27.5932522494
  C         7.9750302376        2.9578744124       24.3132277440
  C         8.4928402796        4.8811524905       23.2039925309
  H         5.8323778245        5.0978101055       24.4201492381
  H         6.6954237862        6.6634491858       24.3793535625
  C         5.3430997452        6.2160770968       26.1103028219
  S         6.9494692377        1.1789328673       26.4062537794
  C         6.5226799990        2.1596514935       27.7342121751
  H         6.6085381727        4.3388637478       28.2834286026
  C         8.3642220280        2.3336649627       23.1594620090
  H         8.6082342644        6.0154312087       23.2791516856
  C         8.7637637643        4.1942022344       22.0484608313
  H         5.1408309237        5.4887773899       26.9753675755
  H         5.6421205278        7.1129981321       26.5086947321
  C         3.9414003963        6.3803933271       25.4690036061
  C         6.1731735970        1.4850985725       29.0059858958
  C         8.7433356226        2.9019893175       21.9602605854
  H         8.2920303405        1.2813884165       23.1567655563
  C         9.0543554748        4.5631585569       20.7479910554
  H         3.6822106274        5.4280665530       25.0008976768
  H         3.9966966708        7.1082518797       24.6884016256
  C         2.9014019475        6.7679600389       26.5316981688
  C         6.2859355918        0.1007620650       29.2344965637
  C         5.5903963893        2.3276630679       30.1114166444
  C         9.0181814712        2.1403293716       20.7316025810
  C         9.2128154941        3.4478724985       19.9207706230
  S         9.2648867997        6.0183097054       19.8976061486
  H         2.1335185033        7.4423401017       26.0964703557
  H         3.3636340487        7.3624515136       27.3092856678
  C         2.1522787682        5.6594829377       27.2996445700
  N         6.6377596240       -0.9099875869       28.3164488554
  C         5.8211727343       -0.4040188666       30.4460732848
  C         5.3416098822        1.8245166925       31.3666179730
  H         5.4160733308        3.3612641072       29.9259357811
  C         7.8074067137        1.3936237485       20.1093896824
  C        10.2451722644        1.2484222353       20.8314430896
  C         9.5199562839        3.8258283750       18.5961362234
  C         9.6527722369        5.1600871004       18.4759085167
  H         1.5057846608        5.0810828549       26.6730740158
  H         2.9272665405        4.9787503987       27.6727725552
  C         1.4460427719        6.2143180644       28.4920923814
  S         6.3756253494       -2.3519542309       29.0083507594
  N         5.9376768229       -1.8057429187       30.4878719963
  C         5.5337579855        0.3880310061       31.5906639182
  H         4.8534799435        2.4071837857       32.0940286972
  H         7.5457944312        0.6258639410       20.8276925806
  H         8.1706994552        0.8229990840       19.2443750590
  C         6.5259063104        2.2019356975       19.7765996271
  H        10.5447347259        0.7637706722       19.8655072185
  H        10.1241296274        0.4129616480       21.5893007904
  C        11.4697128814        2.0138190578       21.4444644650
  H         9.5072185792        3.0660559699       17.8432733104
  C         9.9531770278        5.8426432121       17.1866556956
  H         0.4950953942        6.4981247105       28.2061226686
  H         1.9680407163        7.0980619620       28.9085221312
  C         1.2229445571        5.0636457667       29.5930644157
  C         5.1514488404       -0.2653645493       32.8252943501
  H         6.7357074582        2.9430476078       19.0237499561
  H         6.3147427863        2.8171600583       20.6525386404
  C         5.2897728851        1.4492746163       19.4506301189
  H        11.2024082598        2.5123765999       22.4082366588
  H        11.5903834015        2.8686980290       20.8350286421
  C        12.7095485764        1.1095784142       21.4437242658
  C         9.9711159062        7.2582731135       17.0273939063
  C        10.1636786787        5.0004044215       15.9825211237
  H         0.2189235712        5.1687216746       29.9559987107
  H         1.2559129128        4.0905516137       29.0553660755
  C         2.1806675667        5.1287526261       30.7478759280
  H         5.3870512399       -1.3620028225       32.8677819127
  C         4.8152944538        0.2018699118       34.0592985589
  H         4.3872538726        1.9411203429       19.6642233864
  H         5.3564590267        0.5940759944       20.0763092873
  C         5.1765768977        1.1895107826       17.9776072135
  H        12.6752620654        0.3293937567       22.1564567389
  H        12.8089336688        0.5241392308       20.4930387205
  C        13.9809336542        1.8948234331       21.7335413523
  N         9.7508377559        8.2643125146       18.0024906164
  C        10.4361998612        7.8367590731       15.8867058281
  C        10.4423339076        5.6216724819       14.7408733078
  H        10.1025826477        3.9560700627       15.9712303431
  H         2.2149067414        6.1260613200       31.2247970678
  H         1.9416899011        4.3627128649       31.5822510796
  H         3.2273795510        4.9057807816       30.4725334633
  S         4.5905725685        1.8163227665       34.5620765309
  C         4.7937809351       -0.8299069292       35.1880168894
  H         5.3101820950        2.0930963972       17.2921651794
  H         5.9133201131        0.4774995422       17.7412119103
  C         3.9080658014        0.5030134369       17.5721432478
  H        13.6324336994        2.8241916476       22.2058438663
  H        14.4513416549        2.2737222924       20.7070919009
  C        15.0265056095        1.2002899863       22.6091888748
  S         9.9601118554        9.7291911304       17.4092286321
  N        10.5474465914        9.2914964907       15.9610190038
  C        10.7879409108        7.0626488798       14.7307322687
  H        10.4146163773        5.0361101240       13.8673253319
  C         4.2542701374        1.1300143060       36.1929595474
  N         4.4864220712       -0.2049705018       36.2964790603
  O         5.0791185274       -2.0223479251       35.0037542715
  H         4.1101310195        0.2033049096       16.5466320103
  H         3.0907801711        1.2610002735       17.5581233172
  C         3.5861368831       -0.5957240192       18.5378883549
  H        14.5209923051        0.8409959115       23.5434141387
  H        15.4949411275        0.3796902913       22.1626105122
  C        16.0490722218        2.2421351295       23.1038050676
  C        10.9888385487        7.7998621780       13.5689941715
  S         3.9852130199        2.0152646910       37.7140359437
  C         4.4104401880       -1.0030811595       37.4510209169
  H         4.2406000425       -1.5045302845       18.5372646869
  H         3.5129399438       -0.3533982057       19.6153081242
  C         2.2012547651       -1.1754246440       18.1633425874
  H        15.4765746568        2.9210828491       23.7906867544
  H        16.4596477371        2.9184021697       22.3353015929
  C        17.1251342289        1.5517941449       23.9764631987
  H        10.8408469183        8.8105241790       13.6357927615
  C        11.4803381694        7.4799759696       12.3482546224
  H         3.7607675191       -0.6205881528       38.2418553121
  H         3.9997559480       -2.0135522438       37.2287846830
  C         5.7885718859       -1.0673293858       38.0701720906
  H         1.3491660239       -0.5673377761       18.4810344949
  H         1.9464845123       -2.0867364090       18.7427529884
  C         1.9624842143       -1.4827947776       16.6407706783
  H        17.3719534609        2.0059090068       24.9413276502
  H        16.7365746518        0.6264669398       24.2674072710
  C        18.4174668648        1.2304577043       23.2239296069
  S        12.1404220493        5.9311088034       11.9203807689
  C        11.5655308994        8.5327127428       11.2609565312
  H         5.8663551914       -0.1739699735       38.7427454211
  H         6.0871845929       -1.9035345521       38.7106746306
  H         6.5939216486       -0.8822068834       37.3930157992
  H         2.0221618235       -0.6346312274       15.9723102560
  H         0.9377270960       -1.8752543147       16.4758603775
  H         2.6899934005       -2.2594078175       16.3150067656
  H        19.0698631287        2.0139436900       22.8403987698
  H        18.0877197452        0.6325185992       22.3725686017
  H        19.0854810859        0.6704336955       23.8518878220
  C        12.4434115797        6.6708186908       10.3351965281
  N        12.2615680596        8.0283915807       10.2469972716
  O        11.2425168802        9.6787408402       11.3319795290
  S        13.4607905341        5.8596089727        9.1554510328
  C        12.5431373608        8.8143797502        9.0802952195
  H        12.9153548089        9.7434272510        9.5376517816
  H        13.3920187160        8.2477735906        8.5832858974
  C        11.2791016216        9.0686745892        8.2872057391
  H        10.9512653745        8.1549123322        7.7692947211
  H        10.4590439315        9.4875157682        8.8348952119
  H        11.3541947227        9.8223792818        7.4925965239
  H        -3.3876173600       15.3621280402       15.9455203474
  C        -3.1940503520       14.3636060038       16.2772832387
  H        -4.1838840745       13.8943868425       16.4148357175
  C        -2.5295217710       14.5671386704       17.6108916931
  C        -2.4007083771       13.5763634002       15.1662652148
  C        -2.4021857105       13.3931415454       18.5555632433
  H        -1.5845369524       15.0394171010       17.3530938595
  H        -3.1695583588       15.3545255626       18.0331764736
  H        -1.6264082519       12.9420897932       15.7181767196
  H        -3.0516682415       12.9712778344       14.4778454840
  H        -1.8611063133       14.2748111493       14.4682806449
  C        -1.4693572896       13.7648086577       19.7112170541
  H        -2.0216518432       12.5926589187       17.9886613600
  H        -3.3878836989       12.9875232682       18.8735828982
  C        -2.1684441753       13.5593837026       21.1071625551
  H        -0.5851206658       13.1843871642       19.4265826201
  H        -1.1483010557       14.7994679026       19.5151451914
  C        -1.2036388420       12.9205182804       22.0711370005
  H        -3.0084031508       12.9040261316       20.9835330667
  H        -2.4572946499       14.4785294119       21.5467390082
  C         0.1087538819       13.7312726966       22.4318587626
  H        -1.7159208427       12.7104675254       23.0180738965
  H        -1.0091892987       11.9634215856       21.7332071237
  C         1.2447583581       12.9784188608       23.2413458998
  H         0.5234276820       14.2622461501       21.5782574070
  H        -0.2604343606       14.4779582107       23.0379544412
  C         1.6071569528       11.6346902144       22.5250909555
  C         0.7649028722       12.2385962019       24.4078849522
  C         2.4821640661       13.9130551893       23.4953912161
  C         1.3035864784       10.5030710340       23.2502861135
  C         2.2078776096       11.3065659399       21.2966820124
  C         0.7042005521       10.8483144091       24.4228671157
  C         0.3102978420       12.9028248287       25.5407572795
  H         2.6923807520       14.5958349408       22.6517399755
  H         2.1052838530       14.6902674248       24.2812922649
  C         3.8339517671       13.3135035483       24.0853951210
  S         1.6268234164        9.0826771465       22.4464068345
  C         2.2220506293        9.9835558803       21.0878326792
  H         2.4822732202       12.0626241809       20.5788218271
  C         0.1989832321       10.3026953067       25.5879414167
  H         0.4867615133       13.9535932348       25.4006145320
  C        -0.0780768539       12.3338381609       26.7382522241
  H         4.0232118634       12.3998099403       23.5234333367
  H         3.6286689693       13.0142972077       25.0796113714
  C         5.0015160611       14.2833983481       24.1180092079
  C         2.6528584066        9.1972915291       19.8910557408
  C        -0.0577965212       10.9937036314       26.8044718417
  H         0.1074596993        9.2049293997       25.5493046033
  C        -0.4084203735       12.6929608710       28.0315626667
  H         5.5619691063       14.2031325840       25.0047581705
  H         4.7215194259       15.2817778452       24.1893637502
  C         5.8018754171       14.2551527413       22.8844517490
  C         2.6022075689        7.7918063982       19.6370279810
  C         3.1963834247        9.9942489113       18.7786870455
  C        -0.3236807372       10.2781286572       28.0992122769
  C        -0.5536766445       11.5645066598       28.7987144346
  S        -0.5996479798       14.1670406110       28.9333559057
  H         6.3900254230       15.1237428236       22.9924899672
  H         5.1616074831       14.3879578574       21.9719312295
  C         6.7415579329       12.9753766782       22.7214595880
  N         2.3588493054        6.7791866478       20.6311967832
  C         2.8069565751        7.2557129374       18.4047008310
  C         3.3922984268        9.4696298618       17.5151698908
  H         3.2681688296       11.0369331571       18.7976140649
  C         0.8951466127        9.5948018935       28.7295377512
  C        -1.5651621461        9.3948083061       27.9268188528
  C        -0.9733369617       11.9011102690       30.1242150620
  C        -1.0183977098       13.2412444704       30.3334487325
  H         7.3479362797       12.8417452291       23.6331763147
  H         6.1636906915       12.0713728138       22.6232685438
  C         7.6346137327       13.1667692246       21.4629270487
  S         2.3174437436        5.3218109574       19.9267857742
  N         2.6376705967        5.8403957211       18.4291653548
  C         3.2511591728        8.0086647751       17.3104864364
  H         3.7356306620       10.1090659911       16.6952949163
  H         1.0990649272        8.8983961792       27.9528607721
  H         0.5896365536        9.0665771759       29.6932057429
  C         2.1086668018       10.4725634736       29.1432234720
  H        -1.4809076903        8.5893598138       27.1286628056
  H        -1.8611788810        8.9303906011       28.8710256331
  C        -2.6855398361       10.2315001240       27.4960938659
  H        -1.2226316162       11.0809569572       30.7599700741
  C        -1.2874171243       13.8928061163       31.6182132630
  H         8.5168095559       12.4459527436       21.3311718805
  H         8.1256565992       14.1539563810       21.5996202477
  C         6.9279625393       13.0585475358       20.0633392651
  C         3.4420794701        7.3844211870       16.0350400372
  H         2.6911443396       10.9402167964       28.3106317997
  H         1.8312692952       11.3334710223       29.6996431865
  C         3.0999618955        9.5804568169       29.7909692345
  H        -2.4617604527       10.8552622403       26.6294534909
  H        -3.0676248952       10.8701115033       28.2996352993
  C        -3.8517588319        9.3597488330       27.0292180838
  C        -1.3539314193       15.3020683930       31.8156785254
  C        -1.3723940590       13.0790433325       32.8290795303
  H         6.3593139466       12.1299696088       20.1994613083
  H         6.2404090249       13.9280544551       19.9390949041
  C         7.7121333870       13.1806258696       18.7555282858
  H         3.2728430467        6.3173059784       16.0060986200
  C         3.7806082247        7.8646818294       14.7522562712
  H         3.4519265262        8.8121766466       29.1245665285
  H         2.6572240282        9.0284058895       30.6400048834
  C         4.4096483892       10.3174322981       30.3070869555
  H        -3.5645580481        8.8077820585       26.1196250527
  H        -4.1456423511        8.7565144058       27.7954007273
  C        -4.9955575714       10.2736259028       26.6451296324
  N        -1.1003363504       16.2983576129       30.8427755940
  C        -1.6453413139       15.8662480052       33.0004244074
  C        -1.6790934062       13.6873850166       34.0734450345
  H        -1.1266005612       12.0956922272       32.8230226185
  H         8.5177869640       13.9204412869       18.9579961050
  H         8.0544108441       12.1488789302       18.5783073406
  H         7.0138084743       13.4373337385       17.9446476345
  S         4.1647785347        9.5540227130       14.3080166758
  C         3.8410225979        6.8670676814       13.6422889143
  H         5.0411589403       10.5662486254       29.5097451726
  H         4.2680271819       11.3247138991       30.6705257195
  C         5.3188080410        9.4987958181       31.2033977000
  H        -4.5791989876       10.9261792659       25.8897331035
  H        -5.2006630856       10.7894502592       27.5546004626
  C        -6.2396901318        9.5828009347       26.1655050947
  S        -1.4177477613       17.7860356271       31.4538652429
  N        -1.8697828001       17.2754837995       32.9439867132
  C        -1.8720449552       15.1849548573       34.2185116070
  H        -1.8547754824       13.0417625518       34.9520040282
  C         4.2751985029        8.8053097304       12.6693579695
  N         4.1997537250        7.4856741340       12.5076057384
  O         3.5629691433        5.7270490713       13.7701018268
  H         4.8916200200        9.1625777785       32.1513448365
  H         6.0287991483       10.2553741202       31.5604955361
  C         5.8834959758        8.2742161302       30.4906410406
  H        -5.9759891726        9.0426019619       25.3212101235
  H        -6.6802963137        8.9716936361       26.9315574464
  C        -7.3378507277       10.5945446202       25.8027484384
  C        -2.2733415085       15.8958159539       35.4063886603
  S         4.7745743343        9.7390472571       11.2473462825
  C         4.2341127730        6.7220441677       11.2413898501
  H         5.7269775412        8.3786198267       29.4420293590
  H         6.9756570630        8.2138661070       30.6034040531
  C         5.3770216130        6.8928361367       30.9637411835
  H        -6.9060894162       11.4467145456       25.3933107348
  H        -7.7390404787       10.9302360036       26.7323063750
  C        -8.4933933202        9.9721251465       24.9827806632
  H        -1.8584234460       16.8701964482       35.4476051814
  C        -2.8609820230       15.4896385781       36.6430459775
  H         4.7934607638        7.2197768418       10.4452957191
  H         4.6675161460        5.7542129976       11.3916123353
  C         2.8047241883        6.5007792781       10.7223927350
  H         5.1397427821        6.2906944779       30.0584013645
  H         4.4882647135        7.1958766177       31.4516608301
  C         6.2816614626        6.1427503889       31.8664439153
  H        -8.8106670876       10.7717369953       24.3807716779
  H        -8.1888470679        9.1200993452       24.4451347438
  C        -9.6840286195        9.7760350108       25.9386085121
  S        -3.4504757624       13.9511658986       37.1207862534
  C        -3.0498835901       16.5670395999       37.6140150310
  H         2.0814335661        6.9149826057       11.4164191812
  H         2.5659682961        7.1152664492        9.8292011631
  H         2.5363047820        5.4523777512       10.6417487824
  H         6.9189600493        5.3651727554       31.3314401646
  H         5.5703740389        5.5576568816       32.4397314289
  H         6.8497014834        6.8615902568       32.4320191673
  H       -10.3289597787       10.6526446333       25.8233982758
  H        -9.4788189320        9.7276422728       27.0179270250
  H       -10.3164835681        8.8806867072       25.7589572386
  C        -3.9715336877       14.7659835649       38.6178843852
  N        -3.6896939196       16.0649671744       38.6987601522
  O        -2.5387153739       17.7049245206       37.5180056556
  S        -4.4393829512       13.9579020208       40.1011187490
  C        -4.0144728964       16.8754795540       39.8483835212
  H        -4.1784743586       17.9029189723       39.4863086546
  H        -4.9378138599       16.5574769034       40.4081958247
  C        -2.8818548320       17.0892290306       40.8215544105
  H        -3.0491780015       16.6015110210       41.8101503071
  H        -1.9271136316       16.6974162857       40.5170979914
  H        -2.6530397791       18.1720650461       41.0420183802
