352
 i =    12200, time =    12200.000, E =        25.5408847879
  H        12.5521314856        6.2306333940       32.5762864638
  C        12.0881313374        5.3022825719       32.5982790835
  H        13.0124434685        4.6734445629       32.4013372156
  C        11.0525656618        5.0812588837       31.5224873795
  C        11.4726455638        5.0433385369       33.9528495002
  C        11.6958011451        5.1096474619       30.2026437064
  H        10.6792696578        4.0566654585       31.5685944799
  H        10.2458641664        5.8437066327       31.5580793470
  H        12.0499669797        5.2493403831       34.8710589641
  H        10.5598449080        5.5878409628       34.1969923598
  H        11.1859873712        4.0227022535       34.1080390945
  C        10.6956397194        5.4533669633       29.0836539886
  H        12.3105616381        4.2255622852       30.0387967857
  H        12.5038103397        5.8954170442       30.2745873134
  C        11.2821836094        5.2943523842       27.6922335688
  H         9.8496905726        4.7963128861       29.1244287758
  H        10.2170192542        6.4177936470       29.2015767956
  C        10.2850117763        4.4946871860       26.7094911094
  H        12.2277786062        4.7275415729       27.7902010807
  H        11.4602704737        6.2076363963       27.1360369663
  C         9.2253811963        5.4352061473       26.2738488542
  H        10.7871765900        3.9465337777       25.9245944401
  H         9.8431554465        3.7163823496       27.3866565901
  C         8.0052623387        4.8511354974       25.5459990403
  H         8.7730756483        5.8934533024       27.1619326629
  H         9.7136589423        6.2214666919       25.7140064482
  C         7.4839549961        3.5433030661       26.1761130638
  C         8.3883971728        4.1232391747       24.3202472509
  C         6.9023800459        5.8476441673       25.3744444255
  C         7.6965072324        2.4112075602       25.4016299702
  C         7.1399116760        3.1326833364       27.4713015234
  C         8.1908474375        2.7797562157       24.1289732137
  C         8.9793297326        4.7639211709       23.2469642521
  H         7.1633397082        6.6105051607       24.7074735767
  H         6.6999302337        6.2102494377       26.3726354779
  C         5.5188265840        5.2607980508       24.9292734633
  S         7.0608677596        0.9967835889       26.0507729743
  C         6.8297908007        1.8090241039       27.5258964577
  H         7.0600614148        3.8719793322       28.3160547314
  C         8.4483157652        2.1836999960       22.9298263040
  H         9.0554209263        5.8630744722       23.2206088555
  C         9.2105557801        4.1397381215       22.0774425271
  H         5.7359760388        4.6291195387       24.0274634212
  H         5.1980055756        4.4385032135       25.5674885617
  C         4.3967171305        6.3735100976       24.7081936544
  C         6.2276139614        1.1586870376       28.7100356373
  C         8.9347133117        2.8463108132       21.8254209821
  H         8.2913605236        1.1918052829       22.7666218337
  C         9.5892795507        4.5590021494       20.8125871247
  H         3.7916880454        6.0954498039       23.8038390282
  H         4.8777659007        7.2625530825       24.4740059988
  C         3.5301900567        6.6111528484       26.0030693455
  C         6.2146389939       -0.2524652491       29.0112679107
  C         5.6869591355        2.0584992543       29.8042405719
  C         9.1248855902        2.1940481882       20.4235527796
  C         9.4791711397        3.5522751865       19.9028330936
  S         9.8198206730        6.1317943830       20.1642019259
  H         2.8459182437        7.4811548833       25.8105844659
  H         4.1670436287        6.8483130271       26.8867928324
  C         2.6507543126        5.4213438757       26.1779230248
  N         6.6888137874       -1.2460189971       28.0975330674
  C         5.8316294209       -0.7376199688       30.2867260602
  C         5.3588280443        1.5269806770       30.9872511566
  H         5.6238986278        3.1435424109       29.6664047133
  C         7.8917806220        1.4934738118       19.8374961253
  C        10.3745612721        1.2219446368       20.4890600065
  C         9.8183985761        4.0597325843       18.6340242360
  C         9.9251291179        5.4045888607       18.6247607564
  H         2.1917665031        5.1572316562       25.1791622961
  H         3.2231204507        4.5657250624       26.4366667334
  C         1.5103625869        5.6013930105       27.2486610307
  S         6.5413333058       -2.6713099244       28.9306584265
  N         5.9891210472       -2.1078628125       30.3678482206
  C         5.4006785319        0.0821496133       31.3324776263
  H         4.9952647821        2.1156449066       31.8451243410
  H         7.6319925358        0.5785567082       20.3621566453
  H         8.2903258027        1.1912015416       18.8888513774
  C         6.6102875630        2.3809070730       19.6322901289
  H        10.6386595922        1.0784580766       19.4219007487
  H        10.2218904942        0.3173494425       21.0468365806
  C        11.5653857730        1.9350684234       21.1069956319
  H         9.7773620985        3.3763712857       17.8135061626
  C        10.1428792859        6.2120520177       17.4106208329
  H         0.8952694371        4.6712289086       27.1651620376
  H         0.9570326433        6.4328430240       26.9536197259
  C         2.0496682329        5.8446657445       28.6519672980
  C         5.2790216223       -0.6044989852       32.6007278239
  H         6.9141774165        3.2369006350       19.0028965009
  H         6.3098109999        2.9522333624       20.4990081281
  C         5.4564219730        1.6440434764       18.9398983545
  H        11.4847231628        2.4477013989       22.1087304776
  H        11.8096107532        2.7373701451       20.4514116052
  C        12.8404797537        1.0893412699       21.1099636968
  C        10.3831853658        7.6206614545       17.3077082612
  C        10.2915794913        5.4650680692       16.1162411915
  H         2.7034904641        5.0750342171       29.0154682984
  H         2.6321849101        6.8153890244       28.5810614962
  C         0.9060882053        6.0540600567       29.6807145334
  H         5.6267334075       -1.6188309657       32.5199253353
  C         5.0713108066       -0.2690745603       33.8777802107
  H         5.1007675789        0.9458666304       19.6684074927
  H         5.8735952851        0.9648132434       18.1648253207
  C         4.4059573575        2.4032697001       18.1896751821
  H        12.7566824152        0.4608079817       21.9941682879
  H        12.7002414739        0.5238256898       20.2496455326
  C        14.1723142337        1.8068719435       21.0375835200
  N        10.3302473293        8.5473060638       18.3485572545
  C        10.5980953826        8.2539880697       16.0746463225
  C        10.5966766452        6.1158226221       14.8666477115
  H        10.0840578015        4.3942682058       16.1413535140
  H         1.5405981908        6.2532056215       30.6070679648
  H         0.1265451697        6.7210526314       29.3456787332
  H         0.4357670829        5.0952020083       29.8317480150
  S         4.7710608109        1.3677508170       34.3901249545
  C         5.1688125374       -1.3096494071       34.9143584024
  H         4.3496958350        3.3973247813       18.6195341933
  H         4.6257499935        2.6230472295       17.1708910579
  C         3.0273683433        1.7961211967       18.2673282552
  H        14.2791695932        2.4897178883       20.2192387725
  H        14.9298509882        1.0355559696       20.8567436194
  C        14.5780222984        2.5812963132       22.2571951475
  S        10.4444851977       10.0900290829       17.7526171822
  N        10.7071539604        9.6189873995       16.2039581669
  C        10.8209465934        7.5570551372       14.8638416425
  H        10.6046270554        5.5689567304       13.9326809387
  C         4.7222230165        0.6729526943       35.9934391252
  N         4.9649526169       -0.6665521048       36.0914916242
  O         5.4278592874       -2.5016486429       34.7118189110
  H         2.2646522151        2.4369549161       18.0110712551
  H         2.9964883919        1.4458341090       19.2508630222
  C         2.9459199655        0.5930928992       17.3182550217
  H        14.8077870188        3.6046098475       22.1037074165
  H        13.5827792921        2.7578571959       22.7816323430
  C        15.5687069643        1.9630680135       23.2894584182
  C        11.3028995722        8.3360780206       13.6983224780
  S         4.2295735708        1.6111834482       37.3703248115
  C         5.0139925264       -1.3793489620       37.3499523986
  H         2.0592012666        0.7823664933       16.7146811295
  H         3.8313326907        0.4582824984       16.7142402208
  C         2.7127336709       -0.6853411068       18.1166478101
  H        15.5484973683        0.8668991553       23.2024019421
  H        15.0669764826        2.0856524313       24.2326623284
  C        16.9122405792        2.6683338832       23.3240841852
  H        11.2807935400        9.4199316714       13.7728247611
  C        11.6641853388        7.9368433241       12.4118036280
  H         4.6273113803       -0.9011781842       38.2574256772
  H         4.3107287355       -2.2299644499       37.3355327962
  C         6.4470585561       -1.7930527475       37.7398899527
  H         2.9472423214       -0.6047149605       19.1985463918
  H         3.3937331511       -1.3898572961       17.6706550752
  C         1.4072850656       -1.3149837825       17.9806376690
  H        16.7639981739        3.7858513983       23.2119338114
  H        17.3892884615        2.5267655292       24.2849810885
  C        17.9285166463        2.4298779784       22.2626717332
  S        11.9978090893        6.3313461858       11.8126613833
  C        11.8566275919        9.0993475721       11.4158866450
  H         6.3877871871       -2.1883495816       38.8041899915
  H         6.8722393640       -2.5506928915       37.1148333639
  H         7.0623180781       -0.9227816957       37.7046378519
  H         1.3100164098       -2.2802148819       18.4076765471
  H         1.2747646043       -1.5456799840       16.9805622311
  H         0.5778434152       -0.6479727124       18.2387995440
  H        18.7860463599        2.9948049884       22.5229985016
  H        17.6092135764        2.8828630665       21.3304582030
  H        18.1411582555        1.3316805045       22.1791800288
  C        12.2901427766        7.1772242573       10.2519074186
  N        12.2303591730        8.5389896409       10.2428941750
  O        11.4983981778       10.2597582002       11.5858284674
  S        12.8304620799        6.4454780375        8.7869445880
  C        12.0241011857        9.3674883322        9.0882054425
  H        12.5454500420       10.3654635248        9.1760889755
  H        12.4848764751        8.9572905855        8.2430922760
  C        10.5475790442        9.6325872134        8.7770301613
  H        10.4817092712       10.6524795710        8.4662026927
  H        10.1788331271        8.9538059139        7.9155791877
  H         9.9757129434        9.5101453282        9.6618926890
  H        -3.6656845343       14.8764318311       16.4267594217
  C        -3.5764380169       13.8115275193       16.5043259971
  H        -4.5035239911       13.5006181223       16.9271732138
  C        -2.3796706137       13.7552235440       17.4366501625
  C        -3.3302814116       13.0154482241       15.2191136509
  C        -2.9153517355       13.6197930282       18.9176243672
  H        -1.7176146582       12.9353146058       17.1972180361
  H        -1.8274060247       14.6777412587       17.4752065907
  H        -2.3372878831       12.5216678432       15.1576899296
  H        -4.1483433785       12.3559888597       15.1734403764
  H        -3.4241588547       13.6124903052       14.3291961870
  C        -1.7494119579       13.7047984274       19.9060029901
  H        -3.4055984638       12.6728545623       18.9874233218
  H        -3.6014722168       14.4563628184       19.0477702861
  C        -2.2512827393       13.6431921528       21.3287114961
  H        -1.0250647576       12.9146188843       19.7299364234
  H        -1.2899077528       14.6736755783       19.8636146710
  C        -1.2559330470       13.0512923882       22.2670338063
  H        -3.2324220037       13.1849323803       21.4205956935
  H        -2.4187654505       14.6388225700       21.6978689831
  C        -0.0183680975       13.9084244182       22.5306128951
  H        -1.6823343858       12.8554271212       23.2305143648
  H        -0.9141426066       12.0503060650       21.8473222552
  C         1.1647305167       13.1280212661       23.2802686380
  H         0.2729126522       14.2085811516       21.5568361627
  H        -0.3016012408       14.8582614462       22.9396241713
  C         1.5308064683       11.7382477019       22.5758578221
  C         0.7586142295       12.3891759785       24.4845207614
  C         2.4164525044       14.0081975591       23.4322831767
  C         1.3434178930       10.6312670454       23.3704583218
  C         1.9331479054       11.3961604742       21.2752893910
  C         0.8397579328       11.0167978732       24.6053712398
  C         0.3514544994       13.0552933669       25.6217547971
  H         2.6311897400       14.5003765299       22.5021726810
  H         2.1465954999       14.6467437045       24.2539001073
  C         3.7284796731       13.2900821704       23.8398910980
  S         1.8194111420        9.0943059582       22.6662352924
  C         2.1096707279       10.0276592786       21.1451204534
  H         2.1001728278       12.1566125964       20.6079183188
  C         0.5436087191       10.4381994573       25.7930541320
  H         0.3462458652       14.1088869428       25.5254853139
  C         0.1243435498       12.4152068215       26.8185618711
  H         3.8086220608       12.4486248809       23.2236171603
  H         3.6765314888       12.9573153969       24.8480132903
  C         4.9872041961       14.2016213116       23.7905840461
  C         2.7807489394        9.4667439424       19.9200556319
  C         0.1633801361       11.0850371353       26.9925550875
  H         0.7835819440        9.4012096972       25.9233227491
  C        -0.2444023958       12.7483470627       28.1081112723
  H         5.6987858252       13.9501419811       24.6008577085
  H         4.8185962953       15.2524149874       24.0467525634
  C         5.7225286390       14.2192457364       22.4392902064
  C         2.8567052230        8.1064543299       19.6211790191
  C         3.1073655283       10.3785460746       18.7653675691
  C        -0.2023135381       10.2967843175       28.2405019391
  C        -0.3638960192       11.6142475370       28.9361277662
  S        -0.5456635053       14.2169317899       28.8883040863
  H         6.7495143157       14.5727877406       22.5944551749
  H         5.2292434074       14.8750821689       21.6492434612
  C         5.9412821018       12.8047942790       21.8217503152
  N         2.4764555644        7.0512792740       20.5086255839
  C         3.1323019556        7.5850719425       18.3653350934
  C         3.5201491146        9.8641595682       17.5588263491
  H         2.9965626075       11.4672227254       18.8151435917
  C         0.9341854462        9.4727538490       29.0045853743
  C        -1.4439719993        9.3829109436       27.8787816893
  C        -0.7627364792       11.9965626154       30.2764939380
  C        -0.9568945104       13.3535782970       30.3704592349
  H         6.4869870760       12.1747334545       22.5301942958
  H         5.0754919204       12.2716377178       21.4764866897
  C         6.8371726368       12.8721905010       20.5201512073
  S         2.3820301578        5.6664548747       19.6914589829
  N         2.8590632478        6.2072998474       18.2789452236
  C         3.5016415717        8.3828055379       17.2185996757
  H         3.7760331599       10.5429374635       16.7170908880
  H         1.2002334875        8.6994427396       28.2942980964
  H         0.5291162181        9.1499312789       30.0310771901
  C         2.2320773341       10.1236398846       29.2163184445
  H        -1.2268962427        8.6694494256       27.1562411806
  H        -1.6576355263        8.7678935343       28.7472352640
  C        -2.6663470104       10.2365678503       27.4441098251
  H        -1.1940536345       11.2839507119       30.9480425178
  C        -1.4173342951       14.1637785279       31.5680718898
  H         7.2476144848       11.8924975420       20.3735425602
  H         7.6671628572       13.5055731700       20.5575033012
  C         6.0845047589       13.2234838053       19.2288952149
  C         3.6619042250        7.7472960119       15.9755308472
  H         2.5669587637       10.6533739815       28.3156109299
  H         2.1650332113       10.9025542092       29.9610286150
  C         3.3926691902        9.1763989784       29.5730068938
  H        -2.4059323723       10.5071950672       26.4125051427
  H        -2.8308841538       11.1487378930       28.0626322596
  C        -3.9911024633        9.5308031950       27.4749400716
  C        -1.4221978297       15.6330501751       31.6290392562
  C        -1.7326408532       13.4494378850       32.8557874984
  H         5.3738094843       12.4723421988       18.9154643818
  H         5.4311401614       14.0987163425       19.0961621765
  C         7.1273925719       13.3415717224       18.1083251207
  H         3.2822437495        6.7287810991       15.8613316823
  C         3.8738031536        8.1155979073       14.6918393584
  H         3.8803407246        8.7405002357       28.6966597003
  H         2.9190472440        8.5198639624       30.3224797041
  C         4.4811000768       10.0061563121       30.3974391714
  H        -3.9551109693        8.6184957025       26.8243162783
  H        -4.1215661785        9.1781297109       28.4486354148
  C        -5.2060979532       10.4306146134       27.1885955196
  N        -1.2597669559       16.5122023941       30.5885849765
  C        -1.5953517305       16.2821225052       32.8687037128
  C        -1.9584038388       14.1601700892       34.0121939323
  H        -1.7716115496       12.3385729635       32.9583476743
  H         7.3706858879       12.3388912795       17.6791696347
  H         6.5873973055       13.6922272032       17.2515580518
  H         7.9815153941       13.9811552313       18.2212172409
  S         4.3510143452        9.7164982901       14.0839344380
  C         3.7566654761        7.1050496600       13.6129218919
  H         4.6146905692       10.9313732519       29.9280750460
  H         4.0496588091       10.2899173551       31.4010866775
  C         5.7698146091        9.2554318535       30.5162079662
  H        -4.8259555913       10.9981432082       26.3285227295
  H        -5.4504835164       11.1645457633       27.9238810465
  C        -6.3772950410        9.5368546963       26.6800560651
  S        -1.3637307715       17.9893409890       31.1281328674
  N        -1.4820649525       17.6561127241       32.6964142175
  C        -1.9286179178       15.6185566757       34.0563536972
  H        -2.2569195112       13.5301843073       34.8585821474
  C         4.4333750838        8.9317290826       12.4970935340
  N         4.1966007649        7.6149086150       12.4460584022
  O         3.6680369276        5.9289573940       13.7750052877
  H         6.4875014729        9.9125394315       30.9715456057
  H         6.2638483160        9.0545567224       29.5482461523
  C         5.8527724322        8.0268926178       31.3876793430
  H        -6.1941952927        9.2545115486       25.6189673124
  H        -6.4326068348        8.6783076589       27.3225070173
  C        -7.6459357715       10.3736706867       26.8248787941
  C        -2.1497867239       16.4114462546       35.2367741546
  S         4.9982606583        9.7416647668       11.0063703406
  C         4.0532931441        6.8169442310       11.2687762518
  H         6.8079825874        8.0566418398       31.8450543621
  H         5.1331344659        8.0457170129       32.1913787397
  C         5.9758750559        6.8099617206       30.5039472129
  H        -7.5227498630       11.3620942974       26.2702240768
  H        -7.8734374756       10.5674952219       27.8363710653
  C        -8.7256175691        9.5967458612       26.1701569422
  H        -1.6767566782       17.4100015046       35.2631784426
  C        -2.6718857422       16.1319804049       36.4882909278
  H         4.7249761366        7.1292050289       10.5578878933
  H         4.4449654272        5.7943824204       11.3519479260
  C         2.6151843489        6.7634120351       10.7590834168
  H         5.4297672946        6.8716019929       29.5705063894
  H         5.3690471045        6.0495798032       31.1386271231
  C         7.3679985613        6.2176164656       30.1220287165
  H        -8.5438405684        8.5196681034       26.4342023095
  H        -9.7872212195        9.9092588882       26.4407173297
  C        -8.5250484023        9.7299967203       24.6597503700
  S        -3.3448340718       14.6108635221       37.0434416265
  C        -2.6926634913       17.2410049230       37.4843292109
  H         2.4425186909        5.9066231646       10.1145982694
  H         1.9301300508        6.6103685155       11.5535473248
  H         2.5022421126        7.6988116249       10.1876570198
  H         7.8089608033        6.5210633999       29.1094038220
  H         7.2861646211        5.1406398785       30.0856066917
  H         8.0855779109        6.4714079433       30.9221467703
  H        -9.4530634747        9.5761224965       24.1793179757
  H        -7.8328890966        9.0496532793       24.2121841203
  H        -8.3324817291       10.7260185713       24.3960400447
  C        -3.6330196677       15.4416234491       38.5448396689
  N        -3.3139241994       16.7328648556       38.5622358291
  O        -2.2134355040       18.3990536066       37.3676537202
  S        -4.3678960594       14.6434020562       39.9360328516
  C        -3.5157102892       17.5882193784       39.7208125264
  H        -3.6531115971       18.6068593751       39.2645666044
  H        -4.5307009090       17.4716231007       40.0679332848
  C        -2.3790656702       17.4550261267       40.7819169090
  H        -2.5679891544       18.0868647287       41.6722913131
  H        -2.3028269173       16.4754866694       41.1406945868
  H        -1.4151069192       17.6913766478       40.4247682569
