352
 i =    68100, time =    68100.000, E =        25.3302561928
  H        10.3087846816        4.8585990894       31.4375138283
  C        10.4672184560        5.8613140044       31.9135187252
  H         9.4331673895        6.1293307489       32.1991566935
  C        11.0754981056        6.8731194762       30.9283832377
  C        11.3034125529        5.6809412611       33.2235336638
  C        11.9752620543        6.1485977793       29.9370179272
  H        10.3817685586        7.5170199778       30.4447178058
  H        11.5969546133        7.5251030755       31.5762902492
  H        11.1721922837        4.6358859812       33.5838647596
  H        12.4011136570        5.8446300293       33.1336357387
  H        10.9199381627        6.3989474885       33.9366858749
  C        11.3230841339        5.1859423838       28.9111627397
  H        12.7235748501        5.5654290728       30.4924344371
  H        12.5077048404        6.8964812398       29.3223200556
  C        10.4131814133        5.9297102081       27.9065653743
  H        12.1644640512        4.6748571810       28.3565703264
  H        10.7703045616        4.3954646224       29.3428739480
  C         9.5502553696        5.1294907834       27.0315859854
  H        11.0092240726        6.5285371748       27.2609017310
  H         9.6855488681        6.5357942282       28.4966117724
  C         8.4202364658        5.9169912364       26.3589021989
  H        10.0872686911        4.6600582480       26.2731403030
  H         9.1084872184        4.2801803260       27.6747317960
  C         7.4302057811        5.1017922165       25.5100223062
  H         7.8213160179        6.4507118991       27.1445840983
  H         8.8215356919        6.7080536351       25.7391864022
  C         7.0927085084        3.6702124616       26.1419258670
  C         7.8562384452        4.4143687010       24.2440080540
  C         6.1799380456        6.0256185215       25.0987258598
  C         7.2172611551        2.6421745182       25.2784956004
  C         6.7052084630        3.2736204488       27.4191918710
  C         7.6581383214        3.0798515573       24.0087531946
  C         8.3509381627        5.1536492443       23.1227630492
  H         5.8245132084        5.7084568203       24.1306617885
  H         6.3883723227        6.9808774829       24.7869376938
  C         5.0616526657        5.9968669954       26.1615768440
  S         6.7217148565        1.1090818627       25.9746272944
  C         6.5365284498        1.8948833566       27.5169503478
  H         6.6314422195        4.1068021595       28.1807697129
  C         7.9629768464        2.5114379737       22.7808196021
  H         8.4082067103        6.2146241516       23.2735249396
  C         8.6685532317        4.5852591050       21.8890020223
  H         4.9327578635        5.0216985350       26.6883531376
  H         5.1622850103        6.9346250022       26.7678318858
  C         3.7056474379        6.2681833614       25.4901888528
  C         6.1842402939        1.1941793354       28.7584930467
  C         8.4158643171        3.2593746864       21.6805754141
  H         7.8628747657        1.5125919325       22.6768725045
  C         9.0408394766        5.0023582875       20.6315086719
  H         3.5064940832        5.4195931739       24.8812961997
  H         3.6898072579        7.1253833852       24.7162768767
  C         2.5893625293        6.4045739169       26.5615795700
  C         6.2851549994       -0.1718917265       29.0053184461
  C         5.6031842725        1.9747595929       29.9292486322
  C         8.7346519487        2.5174255468       20.4424659445
  C         9.0876794497        3.8813877011       19.7743271675
  S         9.4571096322        6.4356433752       19.8002086158
  H         1.7923477327        7.0404830455       26.2107223520
  H         3.1919626783        6.8311642975       27.4147015004
  C         2.1726469939        5.0673336060       27.0189509613
  N         6.7868323892       -1.1917668967       28.0926157876
  C         6.0544377035       -0.7138153998       30.3198862372
  C         5.2101138843        1.5095932683       31.1742038634
  H         5.3850715121        3.0043881444       29.8363295671
  C         7.4341338729        1.7432174147       20.0223139061
  C         9.9637367964        1.6192060800       20.6364494897
  C         9.4405839532        4.2779270321       18.4633584754
  C         9.7183376457        5.6262624472       18.3387940087
  H         1.4150705365        4.7801776332       26.2821716621
  H         3.0017506962        4.3099034346       26.9733892243
  C         1.6532973104        5.0500495839       28.4168962712
  S         6.7361395897       -2.5568576677       28.9621338061
  N         6.2465900909       -2.0864032078       30.4449055581
  C         5.4889680229        0.0337988901       31.4092529012
  H         4.6655357534        2.0639171555       31.8394621756
  H         6.9403238450        1.0267166158       20.7908236663
  H         7.6339572437        1.1999617949       19.0978095182
  C         6.3201261132        2.6810040826       19.6105028523
  H        10.4122712932        1.3172580855       19.7150008868
  H         9.7566567387        0.6983683095       21.2294546577
  C        11.0102893099        2.2233823459       21.5303886711
  H         9.5851395702        3.5366236849       17.7190965660
  C        10.1310808397        6.2723609356       17.1022750627
  H         0.9667469202        4.2372523689       28.5446503891
  H         1.0467094754        5.9499300187       28.3489724509
  C         2.9081957418        4.9423437389       29.2784097947
  C         5.2001788890       -0.6120227319       32.6399252759
  H         6.7652532278        3.4653533081       19.0242713051
  H         6.1584432607        3.1369434817       20.6059011451
  C         4.9873987883        2.1679005441       19.1312277925
  H        10.6203599419        2.3316272908       22.5339091656
  H        11.3102670049        3.2388228054       21.2002223483
  C        12.3241225771        1.3927919690       21.5281331465
  C        10.1988943417        7.6423615617       16.8512846691
  C        10.7010181267        5.4598583803       15.9805152370
  H         3.3298507894        3.8972039970       29.2055442295
  H         3.7403326297        5.5263378496       29.0789067457
  C         2.4045895615        5.0454468095       30.7298790838
  H         5.2053278993       -1.7013933957       32.6927113430
  C         4.9714324147       -0.1471481629       33.9283405249
  H         4.2381950294        2.9913772788       19.1856120070
  H         4.5550013441        1.3513910963       19.7171632635
  C         4.8937321004        1.6024212508       17.6859867202
  H        12.0605302173        0.6348966529       22.2574845978
  H        12.5782772067        1.0326017456       20.5186497308
  C        13.3170010122        2.4767755458       21.8895886860
  N         9.7120384210        8.6488744545       17.7611609267
  C        10.5865008325        8.2124464314       15.6648204771
  C        10.8618947595        6.0146469690       14.6673013952
  H        10.7527443756        4.4265167094       16.2248670517
  H         1.7942740795        5.9510725425       30.8905540338
  H         1.8318804422        4.1853991166       30.8968759710
  H         3.1095887278        4.9828699386       31.5610392109
  S         4.7755134650        1.5214198568       34.3206593039
  C         4.9386311229       -1.0862534432       35.0178327442
  H         5.2679409181        2.3595238139       16.9499543881
  H         5.5027582854        0.6919238911       17.5858539194
  C         3.4507353912        1.1987053472       17.3449445809
  H        12.8412044024        3.1806782426       22.5455512845
  H        13.6808812161        2.9807471859       21.0162544397
  C        14.5254577604        1.7900534056       22.5833741608
  S         9.8844116024       10.1315837850       17.1216288254
  N        10.5209086785        9.5975194630       15.6774417739
  C        10.8910806557        7.4965694551       14.4641075278
  H        11.0672273741        5.3746222056       13.9111852587
  C         4.5931417158        0.8394415323       35.9684984759
  N         4.5391225994       -0.4861088892       36.1059750503
  O         5.2641151677       -2.2765628028       34.8451939706
  H         3.3645454280        1.1822779123       16.2195310432
  H         2.8847981565        2.0420966015       17.6874551217
  C         2.8561625234        0.0162757259       18.0378028736
  H        14.1870382088        1.1374124130       23.3781650337
  H        15.0395529071        1.1874008487       21.8282059040
  C        15.4570892699        2.8042962304       23.2149127396
  C        11.0669328279        8.3169261545       13.3096684097
  S         3.9632107871        1.8661060307       37.2892432062
  C         4.3411265973       -1.3025467823       37.2836149061
  H         2.9338705467        0.1684802193       19.0678843887
  H         1.7587949586       -0.0201913683       17.8650923191
  C         3.4203730103       -1.3273437261       17.6431025557
  H        14.8564206379        3.1673842297       24.1056975174
  H        15.4882625816        3.5882031626       22.4275087180
  C        16.8389612951        2.2471134618       23.4827395101
  H        10.4949036533        9.2542324160       13.2673879095
  C        11.7193455639        8.0863826388       12.0989296898
  H         3.6172391302       -0.7419420544       37.8814325776
  H         3.9439536393       -2.3128296019       37.0647597297
  C         5.7071963255       -1.5028249781       37.9994486169
  H         3.7866037380       -1.8778883560       18.5046442954
  H         4.2487705002       -1.2191802036       16.9619295731
  C         2.2378750069       -2.1227955851       16.9552898918
  H        17.2112647284        2.7779780020       24.3963537570
  H        16.8636001120        1.2143706110       23.8349520197
  C        17.6890863033        2.3755933776       22.2103044173
  S        12.5396429646        6.6715508972       11.5348349360
  C        11.7146151017        9.1652033540       11.0991011698
  H         5.6028937467       -2.2081284296       38.8089041275
  H         6.4599923888       -1.9297214444       37.3207465141
  H         6.0093869251       -0.6001646727       38.4960072007
  H         1.6814941140       -1.3437723808       16.4083818304
  H         1.4999029190       -2.5818048077       17.6317628533
  H         2.6263816102       -2.9135537461       16.3549607746
  H        18.1088462476        3.3824578533       22.0479377550
  H        17.1468796646        2.2519461041       21.3265085285
  H        18.4831966505        1.6502049323       22.2011099708
  C        12.7335982986        7.4390711613       10.0311728154
  N        12.3400595201        8.7534414756        9.9680550131
  O        11.1796984747       10.2602685537       11.3140807624
  S        13.5290527812        6.7807266151        8.6975197534
  C        12.3151475869        9.6729425155        8.8342693230
  H        12.4509199307       10.6532373331        9.3178864199
  H        13.1945238683        9.5185650618        8.2202169609
  C        10.9356264995        9.6674535966        8.1917184557
  H        10.9288109804        9.0308522668        7.3522524770
  H        10.0765404833        9.4261659655        8.7433606373
  H        10.5819508572       10.6740177975        7.8028210946
  H        -3.1291793007       14.3888140113       16.1840363226
  C        -2.7635481629       13.3461870245       16.3506846730
  H        -3.6524255522       12.7882274794       16.5708557817
  C        -1.8161307899       13.5079620231       17.5583970941
  C        -2.2340391192       13.0000891439       14.9885222117
  C        -2.3663863853       12.9518113888       18.8835138105
  H        -0.8469231411       13.2526387488       17.3630102160
  H        -1.8205582976       14.5665324782       17.7291663289
  H        -1.4951109123       13.6800238298       14.6677193148
  H        -1.7780916682       12.0006501597       14.9466590440
  H        -3.0511214852       12.9797583820       14.2881718225
  C        -1.3352899539       13.3212303982       19.9573005398
  H        -2.3907269741       11.8588422100       18.9646876760
  H        -3.3394481816       13.3304952385       19.1458723635
  C        -1.9388929401       13.0275995535       21.3366923440
  H        -0.4548323983       12.7234441347       19.7519291922
  H        -1.0128979542       14.3623707980       19.9355987545
  C        -0.9157421868       12.8014900446       22.4599277893
  H        -2.5765245811       12.1143659534       21.2452031720
  H        -2.6267575598       13.8571888325       21.5855925103
  C         0.2449138651       13.6373738654       22.6961731883
  H        -1.4267019997       12.9893542216       23.3899931238
  H        -0.7407085733       11.7033293418       22.4992257519
  C         1.3966814379       12.9211407424       23.4347472136
  H         0.6036762649       13.9517785892       21.7212100990
  H        -0.0236390617       14.5516098721       23.2773104432
  C         1.7277900336       11.5987948095       22.7767285557
  C         1.1204781287       12.2063647202       24.6674564972
  C         2.6882758212       13.7806633164       23.3325549615
  C         1.5548900562       10.5224069962       23.5672678159
  C         1.9752249890       11.2527950645       21.4949699471
  C         1.1093919346       10.8862052133       24.7982974534
  C         0.6612142141       12.7980161659       25.8116950433
  H         2.6992410321       14.0978758029       22.2631279766
  H         2.4751442426       14.7349228043       23.9164197345
  C         4.0215522882       13.1151310656       23.6750318895
  S         1.8474451868        9.0158459438       22.7847775796
  C         2.1354666595        9.9056637821       21.3756967499
  H         2.1483629125       11.9208412028       20.7090896101
  C         0.7765768166       10.2492347835       25.9341354164
  H         0.7251252762       13.9074793881       25.7000244105
  C         0.2424891790       12.1773383213       26.9525156869
  H         4.3145648011       12.1160926068       23.2300163424
  H         3.8747599680       12.8607398315       24.6956095648
  C         5.2278229626       14.1234828899       23.5831195792
  C         2.4917500479        9.3157064543       19.9893135619
  C         0.3098574956       10.8794844344       27.1046970236
  H         0.9056891452        9.2218729715       25.9917831253
  C        -0.2137577331       12.5932711297       28.1730943084
  H         6.0234527917       13.7519614644       24.1628908981
  H         4.9369708696       15.0236494579       24.0621614267
  C         5.9371634307       14.3547802215       22.2795720422
  C         2.5703347875        7.8837571276       19.6964717087
  C         2.7541692850       10.1495201221       18.8003550787
  C        -0.1261776783       10.2133714328       28.2850523120
  C        -0.4406074890       11.5052404091       28.9732133485
  S        -0.3420134489       14.1572946406       28.9518827460
  H         6.6363701968       15.1839012665       22.5096525198
  H         5.3846594927       14.7004034690       21.4089548721
  C         6.6284565400       13.1300627268       21.7771853600
  N         2.3893700992        6.9252045878       20.7526138888
  C         3.0212882857        7.3232142156       18.5425284793
  C         3.1396920092        9.5303545248       17.6133094188
  H         2.7461206279       11.2579181219       18.7954058943
  C         0.9136958679        9.3869165326       28.9963060890
  C        -1.3715238675        9.3236419760       28.0929278443
  C        -0.8137415245       11.9386343141       30.2741844258
  C        -0.8753138514       13.3195193940       30.4046434344
  H         7.2542333918       12.7229405425       22.5570767004
  H         5.8832531823       12.3056312857       21.5974053099
  C         7.5566624403       13.3467534844       20.6085625313
  S         2.5688734678        5.4353161719       20.1793623194
  N         3.0694146265        5.8780830136       18.6422344001
  C         3.3268271687        8.0976764697       17.3925191450
  H         3.4194919324       10.2050261425       16.8469354424
  H         1.2102266057        8.5617900431       28.3399028469
  H         0.5876700668        8.9746700470       29.8738769153
  C         2.1913582759       10.1654819494       29.3508909105
  H        -1.1266617788        8.4906997763       27.4330313552
  H        -1.7817697738        9.0680653108       29.0504903236
  C        -2.5560816491       10.0552634375       27.3847879642
  H        -1.0031112855       11.1186539632       31.0091187141
  C        -1.0915651881       13.9236129269       31.7143719610
  H         8.2697609741       12.5686175673       20.5609603723
  H         8.1203594058       14.2100362958       20.6051806286
  C         6.7971977542       13.2853841719       19.2004687750
  C         3.6774596526        7.3668467669       16.2055694490
  H         2.4761887873       10.8622685811       28.5921109119
  H         2.0589008351       10.7911499721       30.2053671888
  C         3.2833689932        9.2575834111       29.8429536402
  H        -2.2907097075       10.1732006935       26.3174292495
  H        -2.8488234598       11.0775089211       27.6288432271
  C        -3.8644335081        9.2803407339       27.4621484674
  C        -1.1844510149       15.3139646146       31.9327316482
  C        -1.4947065431       13.1275364283       32.8855217678
  H         5.8478569537       12.7062255040       19.2828501991
  H         6.4554325184       14.3036805178       18.9341828425
  C         7.6994350196       12.9582360429       18.0474887378
  H         3.4135188558        6.3441539385       16.2077182056
  C         4.0023379191        7.7429121140       14.8996108519
  H         3.5986206985        8.7450342249       28.9369901148
  H         2.8855320543        8.4807864973       30.5940530193
  C         4.5243171227        9.9851376843       30.3798018327
  H        -3.7165622251        8.3342312739       26.9731391691
  H        -4.0266547633        9.0520362501       28.4618244243
  C        -4.9940740265       10.1294405691       27.0334347392
  N        -0.8936755508       16.2577922948       30.9299708846
  C        -1.6584198404       15.8907328419       33.0854015736
  C        -1.9618666307       13.7491585987       34.0393631106
  H        -1.4827667113       12.1060838573       32.8889799412
  H         8.6609347676       12.4174613884       18.2848482201
  H         7.2206942764       12.5376155876       17.1134031506
  H         8.0627804449       13.9380314467       17.6548590432
  S         4.1966067804        9.3584266367       14.3387761881
  C         4.1259649653        6.6648868062       13.8804900467
  H         4.7720134876       10.9114139078       29.9079068380
  H         4.4149541752       10.1593349234       31.4272709999
  C         5.7697572292        9.1084953410       30.2350192179
  H        -4.6605548940       10.8408830947       26.2934838552
  H        -5.3734012960       10.7617843558       27.7996264830
  C        -6.1549537061        9.3792699105       26.4651862880
  S        -1.0017957390       17.7355026095       31.6292178639
  N        -1.6395771616       17.2757364551       33.0198952973
  C        -2.0738604152       15.2159882252       34.2185565864
  H        -2.3007351512       13.1740670068       34.8729318553
  C         4.5481678770        8.6289041146       12.7265399785
  N         4.4357674836        7.2739384342       12.7500179628
  O         3.9874870391        5.4371492354       14.0326537896
  H         6.6797580404        9.7673481648       30.3959794678
  H         5.7983445200        8.7585517458       29.2213580147
  C         5.7484070702        7.9704050589       31.2239353392
  H        -5.6297942152        8.8392446154       25.6959599581
  H        -6.6679473302        8.7173908449       27.1871870478
  C        -7.1376380492       10.2768138682       25.6918520147
  C        -2.3435635117       15.9609177867       35.4424568718
  S         4.9219774138        9.4745558254       11.2434738153
  C         4.5897095064        6.4254110183       11.5877885067
  H         5.8976769351        8.4311298734       32.1562105125
  H         4.8078143981        7.4283520933       31.1597755751
  C         6.9419720645        7.0437132683       31.0866798266
  H        -6.7463566694       10.6355571155       24.7598432984
  H        -7.3260509366       11.1523634833       26.3206431347
  C        -8.5123825502        9.6102807716       25.4190605095
  H        -2.2482982685       17.0080180671       35.3107092798
  C        -2.8178280765       15.6168597541       36.6569556935
  H         5.2960850187        6.8737630334       10.8882094981
  H         4.9720301359        5.5277771380       11.8790232787
  C         3.2842878115        6.2139182767       10.7562891767
  H         7.1827779337        6.8495672914       32.1197106832
  H         7.8596902344        7.5735702359       30.6983512254
  C         6.7049456856        5.7855663048       30.2045122804
  H        -8.7344076925       10.2242880251       24.5568561447
  H        -8.4158991053        8.5343094878       25.2891135840
  C        -9.5064376109        9.8015439219       26.5236495889
  S        -3.4295721406       14.0775536158       37.0419137404
  C        -2.9121141905       16.6750322333       37.6548646582
  H         3.3839059642        6.8399946728        9.9181863801
  H         3.2087684072        5.1514431569       10.5601998080
  H         2.4740520241        6.5351228386       11.3675736986
  H         7.4874870400        5.0338417686       30.4110966321
  H         6.8868720822        6.1409292249       29.1688239099
  H         5.7612054266        5.2600163407       30.2399570990
  H       -10.5098115597        9.7187537993       26.2024838323
  H        -9.3705290013       10.7275949891       26.9979185453
  H        -9.3129630359        9.1009355661       27.3422295924
  C        -3.9134349317       14.8740452645       38.5888644636
  N        -3.5772806306       16.2058863188       38.7135434934
  O        -2.4361400819       17.8117880192       37.5112684329
  S        -4.8771883125       14.2521705473       39.8826180454
  C        -3.9000171674       17.0252035921       39.8442665324
  H        -4.0711322927       18.0623437491       39.4691876152
  H        -4.8381597962       16.7848324951       40.3255638529
  C        -2.7215090263       16.8948742971       40.8594010474
  H        -3.0904780687       16.4932731655       41.7757593583
  H        -1.9262538999       16.2488068246       40.3844550338
  H        -2.1887966751       17.7187248213       41.1581352597
