352
 i =    56800, time =    56800.000, E =        25.3194998414
  H        12.4228479537        4.5557633486       32.1036940240
  C        11.5608564432        5.1506110273       32.0574219553
  H        10.7153218111        4.5256445829       31.7977593662
  C        11.7505832979        6.2914635647       31.0851498205
  C        11.3299707591        5.7982945910       33.4400392964
  C        12.0212563693        5.7754425275       29.6446643559
  H        10.9103451594        6.9939350377       31.0626744431
  H        12.6492218518        6.8382507207       31.3794711311
  H        11.4586098127        6.8745260770       33.4372413233
  H        10.3548096680        5.5320862648       33.8838845633
  H        11.9995293920        5.2284598651       34.1156549015
  C        10.6920260779        5.1975782357       29.0171382071
  H        12.7461136733        4.9802989390       29.6266386930
  H        12.3210675980        6.6295158998       29.0582742688
  C        10.7754554401        5.3452885700       27.4821864940
  H        10.4855750010        4.2079208190       29.3318258904
  H         9.8774698096        5.7803897612       29.4265405328
  C         9.6391610538        4.6680923030       26.8171036298
  H        11.7552894325        5.0119126751       27.1712156166
  H        10.5774076235        6.3699831249       27.1441247247
  C         8.6222394656        5.5625130908       26.1426557755
  H        10.0221921365        3.8472475334       26.1908971925
  H         9.0300944553        4.2076321031       27.6306858693
  C         7.4153579509        4.8448044671       25.5636211045
  H         8.3176260845        6.1469942598       26.9603040925
  H         9.1069437197        6.3397699891       25.4545743054
  C         6.9909235339        3.5265426654       26.2289302608
  C         7.7316111300        4.0426261059       24.2975211018
  C         6.2383031502        5.8136364905       25.3403130835
  C         7.1665660829        2.4270180485       25.4255610568
  C         6.5513089247        3.2003016598       27.4862296364
  C         7.6998134842        2.7123673048       24.2019882172
  C         8.2902501110        4.7619943799       23.2696758722
  H         6.5086725974        6.6284046639       24.6277792903
  H         6.0623040568        6.2129767729       26.3293407536
  C         5.0127365094        5.0498327929       24.7969360134
  S         6.5323282396        0.9786613211       26.0801632791
  C         6.3303226811        1.8532189384       27.6567957661
  H         6.3807451836        4.0139037595       28.1739281291
  C         8.0685180262        1.9957047305       23.0364004242
  H         8.3020812882        5.8477920945       23.2740921874
  C         8.6686856095        4.1114198577       22.1208752722
  H         5.2025757253        4.4612326284       23.8933840975
  H         4.7503981658        4.3009142473       25.5274196606
  C         3.6160917729        5.7562550852       24.5818707498
  C         6.0160771816        1.1560359534       29.0114019641
  C         8.5443500505        2.7944825084       21.9629649914
  H         7.9017319782        0.9088725369       22.8595859941
  C         9.1519856912        4.5528254238       20.9315936517
  H         3.0148608430        5.2085029699       23.8652468198
  H         3.8036742820        6.7262915203       24.2048597281
  C         2.8398187049        6.0258368097       25.8373232194
  C         6.0331130705       -0.2695883315       29.1650784120
  C         5.7931739612        1.9388888903       30.2188075234
  C         8.8160579438        2.1769492619       20.6762521619
  C         9.2591939557        3.5258250876       20.0193583726
  S         9.3382631248        6.1221722462       20.2464842984
  H         1.9759582701        6.4929642756       25.3953312317
  H         3.3435670990        6.7159528818       26.5613749669
  C         2.2896574476        4.7669707906       26.5213616731
  N         6.3549674298       -1.2041430809       28.1864842634
  C         5.7179095934       -0.9150351617       30.3412898981
  C         5.3258258656        1.3863054574       31.3418791975
  H         5.9373275847        2.9508109626       30.1797532504
  C         7.6522232439        1.4759079064       20.1230805146
  C        10.0182087071        1.1982962766       20.8391669340
  C         9.5668606348        3.9464474623       18.7838293191
  C         9.6760195153        5.3085562064       18.7109767814
  H         1.6402499452        4.1600400019       25.9137005760
  H         3.1408156613        4.1991859266       26.8577686393
  C         1.5419011001        5.1285624287       27.8369690427
  S         6.3570092776       -2.6922750189       28.8269179191
  N         5.8449298950       -2.2986366294       30.3521646705
  C         5.2777835218       -0.1347750750       31.4425742399
  H         5.1736230365        2.0328712514       32.1862769428
  H         7.2583349386        0.7440029885       20.7593157114
  H         8.0776780656        0.9183503347       19.2786297095
  C         6.3905728629        2.2759333992       19.7978703145
  H        10.1209347993        0.7649775264       19.8478079847
  H         9.7385675683        0.3442708192       21.4026251616
  C        11.3122514075        1.8670142320       21.3566915826
  H         9.6036090644        3.1087323178       18.0535697126
  C         9.9998809930        6.0816964318       17.4957790819
  H         0.5740598046        4.6402523571       28.0063626067
  H         1.2426089616        6.2050144137       27.8168205289
  C         2.5067297193        5.0694278849       29.1227647285
  C         4.9562108523       -0.7693566597       32.7056423157
  H         6.6634229112        3.3306231541       19.5580670261
  H         5.8549869026        2.1803084863       20.6709177023
  C         5.6720782361        1.9170726169       18.4169369073
  H        11.3314577419        1.9722273671       22.4123059609
  H        11.4419003101        2.9099365365       20.9692494377
  C        12.4300004479        0.9208045713       20.7384065177
  C         9.9990176154        7.4554207203       17.4087821709
  C        10.1407066605        5.3286708282       16.2124567620
  H         3.0729242560        4.1825967611       29.1197557098
  H         3.0686070205        5.9671977027       29.1749992217
  C         1.6038535651        5.0808621938       30.3724001097
  H         4.7028690052       -1.8468593658       32.5051847452
  C         4.7334724678       -0.3519550267       33.9907028818
  H         5.6451760353        0.8419442492       18.2173498903
  H         6.2059032267        2.3901718102       17.5868120286
  C         4.2132120971        2.3385597697       18.3560441656
  H        12.4367924626       -0.0287235008       21.2235552759
  H        12.3034355811        0.6803023396       19.7118455169
  C        13.8062891857        1.5358851800       20.9605111459
  N         9.7066996066        8.4056854699       18.3986710588
  C        10.2315386290        8.1392896098       16.2135172411
  C        10.3671631719        5.9925664420       14.9735789655
  H        10.1743849994        4.2748251248       16.2966671583
  H         1.0163600004        4.1905883808       30.5795184248
  H         2.2385375382        5.4405237569       31.2643832472
  H         0.8034620425        5.8691520806       30.2138948207
  S         4.6515904497        1.3009832871       34.7105488475
  C         4.5289569509       -1.3950618064       35.0070395603
  H         4.0320650506        3.0321757748       19.2527181717
  H         3.8830821135        2.9599787214       17.5167627176
  C         3.2179698558        1.1724125532       18.6194365172
  H        13.7377928712        2.5604135761       20.4605860122
  H        14.5583874144        0.9835228747       20.3955430088
  C        14.2011492479        1.7355204478       22.4558882478
  S         9.5712747284        9.8673739134       17.8084590862
  N        10.2568819678        9.5141126941       16.3941324143
  C        10.5801307730        7.5219296087       14.9797644332
  H        10.6307142449        5.3352643410       14.1193921731
  C         4.2570136537        0.5330835216       36.1919868330
  N         4.2813416657       -0.8298441446       36.1986735050
  O         4.6866325316       -2.6159050329       34.8067361279
  H         2.3220762954        1.7910033570       18.7748494167
  H         3.4982962218        0.7133326592       19.5815954546
  C         2.9966109950        0.3102623359       17.3393978827
  H        13.4478236116        2.4195201730       22.7943516531
  H        14.0741396599        0.8708235018       23.1394725881
  C        15.5771497379        2.4820568391       22.6281305264
  C        10.8685638652        8.2959587063       13.8347061745
  S         4.2074509563        1.3866606229       37.7997215715
  C         4.4715535222       -1.6366630592       37.4387584232
  H         2.6581079486        1.0670258564       16.5996819035
  H         3.9175909278       -0.0888727277       16.7978746051
  C         1.8645096567       -0.6732462112       17.5617058726
  H        15.5159456220        3.1472405259       23.5399680111
  H        15.7085679085        3.2091373465       21.8861128781
  C        16.8153431873        1.5564374617       22.6985835918
  H        10.5730394510        9.3503882482       13.9176768932
  C        11.2983896515        7.9684945555       12.5478265642
  H         3.7660768504       -1.2887280241       38.2028718864
  H         4.1605341732       -2.6593220537       37.3042852286
  C         5.9280021905       -1.5121020059       37.9420685175
  H         1.0808614633       -0.4445913756       16.8808561538
  H         1.5145157365       -0.6019970104       18.5880957054
  C         2.4888626342       -2.0339004038       17.4644748345
  H        16.5889867101        0.7433495755       23.3860448675
  H        16.9233825919        0.9883902978       21.8442441538
  C        18.1135926202        2.2951462264       23.1737260137
  S        11.7229042982        6.3891116548       12.0309232989
  C        11.4793941402        9.0328123991       11.5273477506
  H         6.5461978177       -1.1739995902       37.1310098840
  H         5.9783961725       -0.8080966031       38.7796255465
  H         6.3349599846       -2.4773028535       38.3578063781
  H         3.4936540118       -1.9944364628       17.8590844517
  H         2.4910088191       -2.5074288783       16.4819434610
  H         1.9385053501       -2.7700410472       18.0984657349
  H        18.4057940051        3.1851104248       22.5368228397
  H        18.9726320281        1.5945247227       23.2215558555
  H        17.9462645789        2.7012177989       24.1886370263
  C        12.2155088989        7.0936705190       10.5528133104
  N        12.0640327675        8.4132054352       10.4629685373
  O        11.2263289105       10.1812981489       11.7963275392
  S        12.7824484707        6.1669707288        9.1548431360
  C        12.2666581549        9.1620776873        9.2156868723
  H        12.3413163238       10.2633240333        9.5731454434
  H        13.2415600633        8.8983449492        8.7928153090
  C        11.1027999661        9.0389396030        8.2132006230
  H        11.3406053335        8.4328001462        7.3443736789
  H        10.1533197716        8.7988927036        8.7283272537
  H        10.9614666351       10.0454721071        7.7732186606
  H        -4.0153668620       13.2709818256       16.3837516152
  C        -3.0177425935       13.5493310821       16.4483581922
  H        -2.5746469008       12.5655437502       16.4335147276
  C        -2.7790822350       14.4970903073       17.6017284492
  C        -2.4888030630       14.1902170925       15.2001325386
  C        -3.1889622246       13.8314931373       18.9794165599
  H        -1.7909588334       14.9258627269       17.6096670709
  H        -3.5379519042       15.2953529719       17.4426238167
  H        -1.4146416203       14.1627553987       15.2675573134
  H        -2.8418471902       13.7243396354       14.2739355332
  H        -2.8641432206       15.1707443934       15.0494789854
  C        -1.8892754744       13.6495002305       19.9096589816
  H        -3.5367793776       12.8591177044       18.6791291542
  H        -3.9516672078       14.3270959089       19.4996951052
  C        -2.0702866302       13.4366998125       21.4224006543
  H        -1.3710600979       12.8272930930       19.4626008149
  H        -1.1894424020       14.4818487434       19.9191702117
  C        -0.9002663579       12.5812075858       22.0342215819
  H        -2.9486782679       12.9290789559       21.5209080301
  H        -2.1466096518       14.3647994243       22.0635282419
  C         0.2312473977       13.5113797734       22.5879040861
  H        -1.3525592558       12.0747203080       22.8473829677
  H        -0.5409598537       11.7654785414       21.5149152177
  C         1.3076506897       12.7681159605       23.3443230624
  H         0.6131349878       14.1914790551       21.7354294900
  H        -0.0930753427       14.2645130760       23.2835537574
  C         1.6178946493       11.4600593418       22.6618424962
  C         0.9096089432       12.0135289788       24.5896710333
  C         2.5817129736       13.6912215399       23.4950467950
  C         1.4279972457       10.3298236260       23.4674906089
  C         2.1730093911       11.1079263721       21.4435403232
  C         0.8724027849       10.6676027683       24.6321635280
  C         0.4475977470       12.6601251867       25.6755618241
  H         2.8953264848       14.0812674855       22.5752573013
  H         2.3998258826       14.5674073849       24.1909654376
  C         3.8040279577       12.8748851625       23.9627431371
  S         1.8619254555        8.8572411593       22.6310516616
  C         2.2346299139        9.7735896826       21.2269360503
  H         2.3483042270       11.9372110510       20.7590286052
  C         0.5106380650       10.0376095849       25.7684222452
  H         0.3345178443       13.7656267182       25.7351450782
  C         0.0817315628       12.0404263216       26.8399961680
  H         4.0340434732       12.1596309699       23.1896121492
  H         3.4716079440       12.2443451116       24.7717261264
  C         5.0663198474       13.6851392393       24.3787185607
  C         2.5849719874        9.0796910882       19.9607022680
  C         0.0239922846       10.6862462274       26.9098650650
  H         0.5733882634        8.9701147189       25.7245424985
  C        -0.3065754476       12.4568562106       28.0899430759
  H         5.7832537063       13.1326262723       25.0218566369
  H         4.6799185542       14.4851048096       25.0104914598
  C         5.8919032559       14.0956293255       23.2337663296
  C         2.5499107335        7.6768712190       19.7575177119
  C         2.9745341624        9.9943752270       18.8379440624
  C        -0.3964814833       10.0337596735       28.1331988089
  C        -0.7293304303       11.3686059727       28.7944477189
  S        -0.5744569029       13.9674623757       28.8088636665
  H         6.6168645408       14.8673245856       23.4574823528
  H         5.1717835140       14.4250178348       22.4482433271
  C         6.6860342258       12.9837397241       22.5945534906
  N         2.1402388284        6.7393598371       20.6481714891
  C         2.6980480975        7.1604357803       18.4909142728
  C         3.2886307384        9.3654859987       17.6034387049
  H         3.2248073711       11.0616176527       18.9701775235
  C         0.7522287312        9.3060942491       28.8195551335
  C        -1.6288777873        9.1547495620       27.9694444951
  C        -1.2839982552       11.7565566574       30.0264646113
  C        -1.1514170383       13.0876811937       30.2563484148
  H         7.4787286245       12.6782539966       23.2591628128
  H         6.1036344438       12.0619594158       22.3844177145
  C         7.4349628773       13.4042472420       21.3716612949
  S         2.1551135719        5.2634773172       19.8858783226
  N         2.6978063074        5.7776345295       18.4353744765
  C         3.1138171233        7.9336778733       17.3916478814
  H         3.6074033599        9.8799149805       16.7868818948
  H         1.2588497548        8.5310274193       28.1730757808
  H         0.3826787248        8.8702565894       29.7725631450
  C         1.8695245116       10.2308750152       29.3720471330
  H        -1.4439357310        8.3743682914       27.1770261234
  H        -1.7380688638        8.5016818544       28.8596692308
  C        -2.8615450213        9.9212622163       27.5615267269
  H        -1.5430634892       11.0419170810       30.7433048101
  C        -1.5012103833       13.7941025132       31.5401945409
  H         8.2375801716       12.7287625773       21.2401411573
  H         7.9135890802       14.3811072579       21.5726499153
  C         6.5993558641       13.4683055836       20.0615507546
  C         3.4366486389        7.2494943580       16.1760307076
  H         2.1980577208       10.8974165381       28.5814594091
  H         1.4756380141       10.7633597867       30.2353288492
  C         2.9389408493        9.3383622619       29.8718583020
  H        -2.6390060753       10.4392430528       26.6376325827
  H        -3.1926155905       10.7756629305       28.2031103709
  C        -4.0767919781        9.0728237110       27.3576972288
  C        -1.5357502263       15.1993432215       31.7640307989
  C        -1.6453350311       12.9276562414       32.7074566697
  H         5.9682831494       12.5452037205       20.1605459632
  H         5.9566187441       14.3813855951       20.1954157734
  C         7.3179097313       13.3250412148       18.7136041953
  H         3.5298675465        6.2153674187       16.2253464051
  C         3.7704920300        7.6897788571       14.8734811953
  H         3.2462553465        8.7585142956       29.0576276358
  H         2.5394910964        8.6244949678       30.5513435569
  C         4.0376605909       10.2307183403       30.5351985447
  H        -3.8980372472        8.1947912273       26.8169243321
  H        -4.4175483494        8.7294324365       28.3457387432
  C        -5.1030459367        9.9170232682       26.7356362633
  N        -1.2889140463       16.1249372996       30.7937252139
  C        -1.8755623529       15.7672854429       32.9969242632
  C        -2.1314204604       13.4974390411       33.8760104010
  H        -1.4780249145       11.8364013431       32.6259938911
  H         6.6050243731       13.2722896378       17.9050211629
  H         8.0253652748       14.1468434636       18.5485862364
  H         7.9933206016       12.3955437245       18.6287491520
  S         3.9730267012        9.3409499221       14.3083006501
  C         3.8522745722        6.6594915188       13.8340878223
  H         4.3088961468       10.9583730520       29.7761394993
  H         3.7493764438       10.8341752595       31.3928323517
  C         5.3665642127        9.4608710700       30.7276105826
  H        -4.7303985110       10.6918651172       26.0467463604
  H        -5.5447844377       10.5037240932       27.4868251241
  C        -6.2868233254        9.1672347492       26.0072647609
  S        -1.2349600392       17.6203626597       31.4853146710
  N        -1.7839766352       17.1519758116       32.9581272392
  C        -2.2857580626       14.9626524591       34.0739399972
  H        -2.2521458474       12.8564412110       34.7338893247
  C         4.1953191204        8.6328971253       12.7284637923
  N         4.1664689415        7.2556568654       12.7106267343
  O         3.7594609038        5.4038837098       14.0053758427
  H         5.8661880072       10.0426940024       31.4987552423
  H         5.9589947112        9.4876289832       29.8199978370
  C         5.2432895438        7.9244619723       31.0216757932
  H        -5.7617318562        8.7107957065       25.1653771670
  H        -6.6586691368        8.4581473003       26.6446987478
  C        -7.2331555447       10.1622590732       25.4513842547
  C        -2.5455317607       15.6695670767       35.2919477618
  S         4.4690302256        9.5731655183       11.2612877200
  C         4.0987842748        6.5486736075       11.4848471499
  H         4.6011441418        7.8317588413       31.8947004916
  H         4.7915098469        7.2948992799       30.3041396017
  C         6.4645792554        7.1904977239       31.4831251247
  H        -6.8054192294       10.7491009104       24.5725350824
  H        -7.3899956965       10.9867418648       26.1249070352
  C        -8.5270040779        9.5167529600       25.0978362011
  H        -2.0218842166       16.6131637322       35.2655347958
  C        -3.1253913696       15.3597043362       36.4980135673
  H         4.8020929365        7.0304058937       10.8283265612
  H         4.4247462459        5.5539596217       11.4440652324
  C         2.6188979547        6.6203043052       10.9867577872
  H         6.3664763711        6.1452642403       31.5426173134
  H         6.7239851244        7.5796167662       32.4569053529
  C         7.7397851110        7.6068260368       30.6245804329
  H        -9.0413800844       10.1225065522       24.3893987261
  H        -8.3680018024        8.5354471057       24.7294136909
  C        -9.4317651930        9.4224305975       26.3435313416
  S        -3.8057615599       13.9040746175       36.8943443117
  C        -3.0776717759       16.3791125665       37.5708929740
  H         2.3735047375        6.5216786061        9.9213718836
  H         2.0146997896        5.9069270800       11.5807038699
  H         2.2561413717        7.6393543474       11.2459230050
  H         7.6310559952        7.2213393099       29.6111380780
  H         8.6383290429        7.2593722791       31.0723441253
  H         8.0205333519        8.6510898181       30.4768646341
  H       -10.4407175646        9.1178642377       26.0224876289
  H        -9.5713066690       10.3626702365       26.8792123352
  H        -8.9698406086        8.7369566695       27.0547585337
  C        -4.2248650539       14.6703973460       38.4231004808
  N        -3.7847984935       15.9809282238       38.5984670288
  O        -2.5985185533       17.5106221589       37.4015967567
  S        -4.9481562647       13.8366815738       39.8477695338
  C        -3.9078050959       16.7810797462       39.8466652333
  H        -4.1787892035       17.7904671341       39.4373174334
  H        -4.6868530563       16.4155910186       40.5418511196
  C        -2.5209712103       16.7534132938       40.5170064086
  H        -2.1059870540       15.7909709527       40.3345140704
  H        -1.7064831715       17.4887469215       40.2427490117
  H        -2.7739820941       16.7413789943       41.5750240490
