352
 i =     3700, time =     3700.000, E =        37.0383428624
  H        11.3239148128        7.1097923427       32.5064943450
  C        11.2488090291        6.1237469020       32.2156399079
  H        12.2205220434        5.6338735238       31.8603260324
  C        10.1708142483        6.0387828310       31.1444023419
  C        10.9508665644        5.4168540242       33.4933662967
  C        10.7962154397        5.9742000212       29.7255087224
  H         9.7369120466        5.0594066838       31.3002994422
  H         9.4595593074        6.7887455053       31.1793021924
  H        11.7565451071        5.5551520606       34.1799646327
  H        10.1179610211        5.9359855316       33.9720364956
  H        10.5623288479        4.4061841029       33.3912105440
  C         9.7248150904        5.9943626899       28.6214541357
  H        11.3198075611        5.0307343232       29.6818700696
  H        11.4159375426        6.7588583195       29.4908111449
  C        10.3920724251        5.5685204911       27.2758513365
  H         8.8420264660        5.4210593459       28.8663005906
  H         9.3919167558        7.0239431877       28.5577441981
  C         9.4138733574        4.8980973030       26.2839178936
  H        11.2159772863        4.8924991046       27.3787215203
  H        10.9352191427        6.2804726042       26.7505581525
  C         8.2282435014        5.7936140998       25.9377433606
  H         9.8415720780        4.3964323425       25.4671453125
  H         9.1489214613        4.1382333095       26.9292238797
  C         7.0525104548        5.0175733233       25.2472524720
  H         7.8739881399        6.3781335788       26.7958347436
  H         8.6681438620        6.5218773081       25.2680768133
  C         6.7229399726        3.7369050673       25.9379743164
  C         7.4907473582        4.2427248463       24.0871115475
  C         5.7975829870        5.9072549656       24.9201477166
  C         6.8707162228        2.5989677250       25.2326445552
  C         6.3664906533        3.4133543145       27.2874660869
  C         7.4780475390        2.8870600290       24.0052069048
  C         8.0430117515        4.7812520564       22.9859063159
  H         5.9968496347        6.5238541865       24.0504810318
  H         5.6104738293        6.6677288069       25.7844849756
  C         4.5023221267        5.0525717392       24.7304414627
  S         6.4681391704        1.1474645753       26.0691212046
  C         6.0851843195        2.1096015424       27.5212313968
  H         6.2041128264        4.3249945035       27.8959907795
  C         7.8683480381        2.1991270428       22.8861299066
  H         7.8857872504        5.8629941978       23.0491774850
  C         8.4059204311        4.2624690936       21.7876056801
  H         4.6253325092        4.4467314859       23.8672866161
  H         4.3990222879        4.4379807976       25.5678790338
  C         3.2688767827        5.9847612478       24.5884410813
  C         5.5834574694        1.4904420587       28.7889063831
  C         8.3566651251        2.8990422613       21.6915039783
  H         7.5912350138        1.1019912937       22.8224220616
  C         8.8836006635        4.6895113148       20.6011567794
  H         2.6204197590        5.3098342321       24.1049862606
  H         3.5128908313        6.7725294669       23.9443538789
  C         2.7070638129        6.3033901024       25.9514732917
  C         5.5797410837        0.1310255418       29.0597245353
  C         5.2776171082        2.3565599497       29.9393651768
  C         8.7006283354        2.2010536200       20.3422640638
  C         8.9599161226        3.6052556157       19.6968167400
  S         9.0752487725        6.2101373618       19.9020522577
  H         2.0318722811        7.1632208616       25.7223556436
  H         3.6256824614        6.4482474104       26.5510999522
  C         1.9210972640        5.0978841524       26.5378205817
  N         5.8514155401       -0.8849534671       28.1464169987
  C         5.2403586803       -0.4040911924       30.2736651000
  C         4.8124272819        1.8291323368       31.1335530771
  H         5.2117087018        3.4361685439       29.7272389204
  C         7.6699119869        1.4652217559       19.5635280775
  C         9.9862733277        1.4073272690       20.5363515095
  C         9.3376063892        4.0677172378       18.4789502642
  C         9.4059323586        5.4259074807       18.3375761071
  H         1.0292180918        4.7464993266       25.9611638778
  H         2.5297352717        4.2272862122       26.7498713864
  C         1.2962837937        5.6035785924       27.8645957357
  S         5.7484983269       -2.3427046915       28.8261003002
  N         5.3401502350       -1.8041724310       30.2760625359
  C         4.8795360409        0.3999614498       31.3751444036
  H         4.3524572764        2.4373653501       31.9144425315
  H         7.2764482101        0.6467495093       20.0189840094
  H         7.9745111448        1.0284784950       18.5986498119
  C         6.4723118572        2.3170197064       19.3040172605
  H        10.2721577004        0.6750655258       19.7436348578
  H         9.7718746767        0.6270769580       21.2764006387
  C        11.2042521995        2.2376446648       21.0214136531
  H         9.5238549825        3.3888098856       17.7027822953
  C         9.8724840037        6.1476137589       17.1470738066
  H         0.6590622731        4.7640623458       28.0847244359
  H         0.6322097684        6.4453021555       27.9503183028
  C         2.3688330745        5.6824857223       28.9360552443
  C         4.6939311150       -0.1733282295       32.6890572999
  H         6.6829600698        3.3060009717       18.8918821962
  H         5.9954006622        2.5452895718       20.2278945423
  C         5.5168175952        1.6274907343       18.3978865457
  H        10.8227874141        2.9368710193       21.7406156342
  H        11.4706891885        2.9109067741       20.2325076149
  C        12.2517930616        1.3415746519       21.6869248441
  C        10.0793936298        7.5134811187       17.0220874746
  C         9.8344607395        5.3841589725       15.8633905563
  H         2.9492206227        4.7957420975       28.8737925398
  H         2.9514526972        6.5568375327       28.7128039078
  C         1.9272838631        5.7348635705       30.3389086125
  H         4.9150090561       -1.2006086349       32.6540623071
  C         4.3619207184        0.3140260030       33.9414065917
  H         5.5089255916        0.5847132443       18.4218487177
  H         5.8424009975        1.7262990543       17.4520445286
  C         4.1416306572        2.0687167013       18.4177373462
  H        11.8497399988        0.6433439901       22.3821078202
  H        12.5749135182        0.6291597125       20.9223278946
  C        13.4656536301        2.1097073556       21.9835259245
  N         9.9451759386        8.4338128210       18.1424918164
  C        10.2406016568        8.1491646886       15.8406265558
  C        10.0234753331        6.0692120178       14.7245624688
  H         9.9454577786        4.2619226958       15.8398690838
  H         2.7536788130        5.5713567381       30.9062358628
  H         1.6505098392        6.7940405731       30.7202528243
  H         1.1648993197        5.0857211662       30.5931451397
  S         4.1184254178        1.9607891904       34.4610553922
  C         4.1747468165       -0.7334888987       34.9795829738
  H         4.0856668220        3.0311650335       18.9765752218
  H         4.0663085705        2.3639388213       17.3622603601
  C         3.0351437652        1.0627017203       18.8721162783
  H        13.0901750099        3.0949945584       22.4111506993
  H        13.8845343046        2.3914698169       21.0528290232
  C        14.5579934750        1.5113891496       22.9228799659
  S         9.9984563978        9.9512993864       17.5549434842
  N        10.3727997613        9.5321740373       15.9872306642
  C        10.2067595136        7.5625622689       14.6751311347
  H        10.1943669002        5.5230196551       13.8484776223
  C         3.6721353949        1.1724344148       36.0388348474
  N         3.8081372334       -0.1656402427       36.1301173511
  O         4.2520939194       -1.9082885246       34.7733853110
  H         2.1344562561        1.5141738992       18.9975847259
  H         3.3349887628        0.6664036764       19.8281902578
  C         2.7191514279       -0.0113683942       17.8531475045
  H        14.0200423426        1.0655782038       23.6853695162
  H        14.8664912910        0.6338143271       22.3127400795
  C        15.6223438753        2.3936115614       23.4400875292
  C        10.5460888895        8.3307522808       13.4670235644
  S         3.6438274198        1.9804644707       37.5770075058
  C         3.6185699750       -0.9053435014       37.3808898376
  H         2.2626051473        0.4861322355       17.0887546551
  H         3.6189787504       -0.3594557706       17.5246452627
  C         1.7729928382       -1.2166295085       18.3513857945
  H        15.1895294380        2.6286355063       24.4750521809
  H        15.6956741293        3.2319993369       22.7935055471
  C        16.9748278681        1.6921465165       23.5136982484
  H        10.0674140802        9.2952870042       13.5474839327
  C        11.3453045478        8.0954670774       12.3398454042
  H         2.9393723143       -0.4435927455       38.1488633004
  H         3.1497632332       -1.7810212869       37.1219340099
  C         4.9783717138       -0.9986468012       37.9560809121
  H         0.8769838157       -0.6777706238       18.6045178733
  H         2.2385419381       -1.7545494151       19.1601355394
  C         1.2168069767       -1.9339758167       17.2017952374
  H        17.6209986958        2.3984987447       24.0959548056
  H        16.9855690287        0.7848224554       24.1594934919
  C        17.6067502320        1.5285483960       22.1620295972
  S        11.9092570310        6.5799623278       11.8528684141
  C        11.3269686047        9.1452704884       11.3108134690
  H         5.7903931763       -0.6361828498       37.3018215123
  H         5.0994256062       -0.5558599244       38.9489825615
  H         5.1854854657       -2.0345206025       38.2126874114
  H         1.7506395407       -2.8170614930       17.0023216448
  H         1.3344257414       -1.4485915322       16.2452072042
  H         0.1720911540       -2.0846865958       17.4218194310
  H        18.6781821213        1.6895752962       22.1288705455
  H        17.3131459624        2.2738225609       21.4952743941
  H        17.1966204628        0.6499543305       21.7153832927
  C        12.3944976526        7.4553135437       10.4036221745
  N        12.0774878786        8.7886705887       10.2887234217
  O        10.9427288216       10.2502648922       11.4671251296
  S        13.3683799723        6.7201495829        9.1127544626
  C        12.0768332983        9.6854401940        9.1082240483
  H        12.0171084856       10.7304656292        9.3663208696
  H        12.9601215969        9.7861522321        8.4996079945
  C        11.0562432405        9.3426821318        8.0607060546
  H        11.0422490570        8.2675366394        8.0512838888
  H        10.0559433533        9.6007467500        8.3856840015
  H        11.4061563460        9.7281242768        7.2110233146
  H        -3.9508660028       12.7116952866       16.7455608595
  C        -2.9401348895       13.0368928646       16.7671905657
  H        -2.2146102702       12.1334076992       16.9424091417
  C        -2.9167597921       14.1641071597       17.7589860439
  C        -2.6088241797       13.4568121331       15.3435476161
  C        -3.4252452362       13.7736385227       19.1521253949
  H        -1.9069387623       14.4976229700       17.8519950200
  H        -3.5321960179       15.0309486696       17.4108452142
  H        -2.8572523492       14.4539162644       14.9895929312
  H        -1.5422521694       13.3920215189       15.2757840895
  H        -3.0025164559       12.8111287612       14.5830687427
  C        -2.2914695328       13.5286329494       20.1661756587
  H        -4.0791468235       12.8659152392       18.9873104561
  H        -4.2404174122       14.4222236488       19.4475050906
  C        -2.6555851549       13.5020992707       21.5947685213
  H        -1.9213102968       12.5383601356       19.9590275667
  H        -1.4790360339       14.2714814886       19.9211219549
  C        -1.6522303533       12.8061783960       22.5590512413
  H        -3.6743397203       13.0770639833       21.6183680340
  H        -2.6793698035       14.4698512226       21.9225052810
  C        -0.5081456179       13.7182959977       22.9468298427
  H        -2.1203162339       12.5326763922       23.5321934414
  H        -1.3327221060       11.7745564893       22.2284211485
  C         0.6693148746       12.8680852279       23.5286636236
  H        -0.1282835812       14.0200383276       21.9988827859
  H        -0.7258451880       14.6664400270       23.5001029675
  C         1.0237507895       11.5434408253       22.7960546094
  C         0.3061867576       12.1154486293       24.7586169665
  C         1.8165989014       13.8703593035       23.7806906624
  C         0.7633983186       10.4313016146       23.6179809339
  C         1.4887224327       11.2456294593       21.4911291494
  C         0.2541335795       10.7651775959       24.8570605105
  C        -0.0398466457       12.8288268058       25.8700793809
  H         1.9016841044       14.5575066494       22.8921975494
  H         1.5099149584       14.6594809974       24.5315913179
  C         3.1177263866       13.2008399579       24.2523187327
  S         1.3350186795        9.0564276114       22.8220529770
  C         1.6354151707        9.9047038926       21.3188975674
  H         1.6386023562       12.0261678157       20.7289918841
  C        -0.0980163996       10.2077564259       26.0274637910
  H        -0.0594084433       13.9949664887       25.8634680671
  C        -0.5161648893       12.2409808632       26.9845282351
  H         3.4381759617       12.4729633073       23.5199314955
  H         2.9898197606       12.7249278099       25.3040762164
  C         4.2899075280       14.1916580548       24.4114377020
  C         2.1147667603        9.2693015306       20.0916351782
  C        -0.4420876329       10.9089713863       27.1378607855
  H        -0.1912723362        9.1240407220       26.0849564643
  C        -0.8922160300       12.6300031546       28.2201227615
  H         4.8702368420       13.7567417773       25.2452228023
  H         4.1350051184       15.1665190958       24.8428298185
  C         5.1842038677       14.2258924847       23.1598670976
  C         2.2938570417        7.8387954493       19.9282035043
  C         2.6568258655       10.0728973443       18.9346710656
  C        -0.8027652849       10.2628251902       28.4057907924
  C        -1.1740123896       11.5931305635       29.0971427773
  S        -1.1856125567       14.1564639245       28.9164912578
  H         5.8961065602       15.0393984595       23.4360675657
  H         4.4844213373       14.6559207671       22.4189219997
  C         5.9951571842       13.0439215848       22.7336785125
  N         2.0674732309        6.8093344120       20.8433898980
  C         2.6058478653        7.3001833886       18.6533035617
  C         3.0938666540        9.5237602090       17.7275466632
  H         2.4996728430       11.0993839188       18.9989534383
  C         0.3803950727        9.6004496938       29.1398581887
  C        -2.0400788572        9.4035092588       28.1969178014
  C        -1.5673675327       12.0390609169       30.3772711980
  C        -1.6800362308       13.3635663908       30.3858730527
  H         6.7165347700       12.7784548038       23.4820392177
  H         5.3822354238       12.2368559707       22.5557216975
  C         6.6474715612       13.3248501210       21.4160321043
  S         2.2360788032        5.3824875968       20.1260751654
  N         2.6394331636        5.9136680853       18.6917185044
  C         2.7959355588        8.1373965713       17.5160780646
  H         3.2192249254       10.3079924775       17.0000367445
  H         0.7968295927        8.8348288255       28.3765582699
  H        -0.0842940890        8.9346361983       29.8762338552
  C         1.5650973660       10.4884095077       29.5177973666
  H        -1.6865271590        8.4873389350       27.7475041041
  H        -2.4219228275        8.9612133095       29.1597637800
  C        -3.1715415597       10.0654075693       27.4048974692
  H        -1.7701097335       11.3318181622       31.1830106829
  C        -2.1397196399       14.0861232085       31.6050597023
  H         7.3564196444       12.5253755771       21.3177249717
  H         7.3058861920       14.1968447650       21.5827742808
  C         5.7386917929       13.6124088813       20.2294826955
  C         3.0270550472        7.4140944960       16.3322130648
  H         2.0098263506       10.8086053287       28.6405596670
  H         1.3084676645       11.3982973719       30.0477277034
  C         2.6499564991        9.6430939280       30.2567667188
  H        -2.6738521559       10.3950231445       26.4715745822
  H        -3.4097280039       11.0313476856       27.8550148930
  C        -4.4233786652        9.0476317704       27.2664582084
  C        -2.1662466243       15.4703430563       31.8642365537
  C        -2.4370573145       13.2386826749       32.8600143503
  H         4.9758100805       12.8027581220       20.0793977168
  H         5.4041839765       14.6176677114       20.2993909181
  C         6.5307548788       13.5090137047       18.9117681761
  H         2.7727176927        6.3745381864       16.3156022974
  C         3.4476950904        7.7814554140       15.0885885137
  H         2.8104460991        8.6701173239       29.7555858348
  H         2.1686914436        9.1358895478       31.1350036970
  C         3.9840683511       10.3540509274       30.4289210023
  H        -3.9526216456        8.0101246696       27.0161201274
  H        -4.9114785058        8.8217068414       28.1444494061
  C        -5.3487056707        9.4740824632       26.1630133190
  N        -1.9866937541       16.4318051585       30.8743096008
  C        -2.4023280085       15.9824411565       33.0674047544
  C        -2.5647422211       13.8298916654       34.1208785728
  H        -2.3372114032       12.1720836470       32.9187236694
  H         7.1713715959       12.7241993409       18.5435921331
  H         5.6916441043       13.6017630763       18.1850311697
  H         7.2720377911       14.2886104516       18.7269934453
  S         3.7113463959        9.4050264791       14.5580095882
  C         3.4774382284        6.8239900115       14.0145364405
  H         4.1427247421       11.1190657840       29.6605470155
  H         3.9940741541       10.9031564861       31.3478271147
  C         5.2566532080        9.4835469645       30.3484657921
  H        -5.5377104746        8.5884762401       25.5747982587
  H        -4.8662141604       10.0900682214       25.4734919164
  C        -6.5666025415       10.2363645599       26.7343376444
  S        -1.9080309945       17.8536553899       31.5904387235
  N        -2.2231583541       17.3802285268       33.1413469880
  C        -2.6632053489       15.2893616624       34.2742993294
  H        -2.7186800139       13.3011125873       35.1069657511
  C         3.7995798628        8.8202082618       12.9147823530
  N         3.7357808020        7.4431384996       12.8371105811
  O         3.3874857719        5.5819126158       14.2781903916
  H         6.0551230150       10.1012443390       30.2429768027
  H         5.2287348853        9.0235263870       29.3293929189
  C         5.3701983155        8.5179563136       31.5390279912
  H        -7.2427046161        9.5331582643       27.2332972539
  H        -6.1673394980       10.9005715225       27.4683633398
  C        -7.4117975384       10.7264962285       25.5627534052
  C        -2.9910392892       15.9549869665       35.4443895049
  S         4.3663708675        9.7324777607       11.5477232470
  C         3.8059535255        6.6864263331       11.5658726494
  H         5.7983340886        8.9452678328       32.4955856348
  H         4.3467432858        8.2845317818       31.8210116915
  C         5.9643205651        7.1617625769       31.1382803403
  H        -6.8415754296       10.7348248030       24.6441267096
  H        -7.9127688413       11.6874769227       25.7944951490
  C        -8.5357406375        9.7521727070       25.3827338541
  H        -2.7692131687       17.0253459793       35.4474793330
  C        -3.3586866159       15.5882469731       36.7460277168
  H         4.6613847656        7.1346146072       11.0961923109
  H         4.1214591933        5.6505815596       11.8202487209
  C         2.3756363365        6.5343346329       10.8690026858
  H         6.7908213743        7.1268368688       30.5319836331
  H         5.1168026406        6.5138342819       30.7847142686
  C         6.5298863070        6.5631043851       32.4436123526
  H        -8.9308765813        9.8583316747       24.3580295593
  H        -8.1971491452        8.7234162016       25.5331799776
  C        -9.7727707247        9.9984188615       26.2914553943
  S        -3.5867621395       13.9471663830       37.3675894018
  C        -3.5087004184       16.6218000740       37.7642281348
  H         2.0364141680        7.5616008760       10.5774489383
  H         2.4431185790        5.6399284035       10.1939872266
  H         1.8135073387        6.1567099236       11.6379652164
  H         5.8006126972        6.6099699163       33.2681558982
  H         7.3772866901        7.2600588671       32.7677264296
  H         6.9462393102        5.5835336797       32.1847779097
  H        -9.7764884240        9.4207389755       27.1770693824
  H       -10.5083356786        9.6094284244       25.6310327753
  H        -9.9278072904       11.0001482282       26.5165249390
  C        -3.8259432927       14.6856358625       38.9235575732
  N        -3.8544076471       16.0440684717       38.9370824407
  O        -3.2875430194       17.8134570104       37.5077800338
  S        -4.6596097098       13.7670518494       40.1831670854
  C        -4.1183394240       16.7663728498       40.2257440812
  H        -4.5435596559       17.7209719074       39.9227978625
  H        -4.8589917184       16.2441667314       40.9398692105
  C        -2.8102334755       17.0678818366       40.8355843867
  H        -2.4488327420       16.1091841106       41.2499124120
  H        -2.0356446490       17.4983122083       40.2669439659
  H        -2.9235199054       17.8487739427       41.6334251321
