352
 i =    43600, time =    43600.000, E =        25.2918474464
  H        11.6463212468        7.3133696302       31.9983367603
  C        11.3869882576        6.2667333949       32.1295463126
  H        12.3753291240        5.7916739927       32.0644270812
  C        10.6470910618        5.7252688985       30.9350118159
  C        10.6856505652        5.9997850815       33.4360399771
  C        11.3687405407        5.5883588895       29.6866372806
  H        10.2195159949        4.7546249636       31.2334780620
  H         9.8116504382        6.3712409146       30.6796436248
  H        11.3803947831        6.4026746385       34.1551646859
  H         9.8066215467        6.5952313650       33.5646072763
  H        10.5274394376        4.9316202319       33.7391025057
  C        10.3484657951        5.3425686744       28.5808023776
  H        11.9977316821        4.6864031393       29.9229914184
  H        11.8861522891        6.4810717900       29.4590955645
  C        11.0315718675        5.4563450945       27.1792459744
  H        10.0077767448        4.3443025731       28.8478537780
  H         9.5927067974        6.0818446379       28.6016295235
  C        10.1460982062        4.7856863673       26.0877298996
  H        11.9724519075        4.9402231955       27.1838160137
  H        11.2637877567        6.4883781078       26.9349532742
  C         8.9339259941        5.5893215690       25.8066344336
  H        10.5877027076        4.8198730595       25.1692286960
  H         9.9355954958        3.7303009091       26.3533187525
  C         7.7559061607        4.9497616525       25.1561895408
  H         8.4517960027        5.8310040358       26.7616315178
  H         9.1465997026        6.4588174727       25.3019788900
  C         7.4398645054        3.5760717732       25.8322408604
  C         8.0872152828        4.1399011119       23.9189395709
  C         6.4561017287        5.9114023755       25.0955832922
  C         7.5181814865        2.4501651276       25.0712017775
  C         6.9611323548        3.2960735499       27.1179070818
  C         8.0276054354        2.8194796673       23.8196631133
  C         8.5187309329        4.8588615329       22.8104928301
  H         6.5641297085        6.7053821725       24.3405321557
  H         6.3790272303        6.4419198991       26.0730156255
  C         5.2189038969        5.0207911570       24.7648661397
  S         6.9533713891        1.0234254046       25.8334690137
  C         6.6515163413        1.9524573571       27.2642334876
  H         6.9445551969        4.0786235344       27.8609016985
  C         8.3200460334        2.2335892076       22.6188483513
  H         8.6504095596        5.9065455181       22.9517977757
  C         8.7272707391        4.3244771740       21.5930776894
  H         5.4974486921        4.3760427769       23.9212236600
  H         4.9934517230        4.3200374492       25.5636715797
  C         4.0378771178        5.8643465462       24.3492472573
  C         6.2412096807        1.2931055304       28.5295070716
  C         8.6358769124        2.9852707749       21.4130055419
  H         8.2213811838        1.1260832427       22.5061191240
  C         9.0866855397        4.7471899560       20.3185238726
  H         3.4283289194        5.2141974470       23.7342374298
  H         4.3571129384        6.7589765007       23.8380160350
  C         3.2322573387        6.3548576693       25.5770676195
  C         6.0099355371       -0.1052938995       28.7242621287
  C         5.8484629114        2.1685140193       29.6694572480
  C         8.9134807968        2.2630852307       20.0919946590
  C         9.2620468454        3.6564013588       19.4798047102
  S         9.5657726439        6.2156558980       19.6324649151
  H         2.6999362571        7.2119200227       25.2372722299
  H         3.9249509671        6.7383661458       26.3825815436
  C         2.2965923653        5.0827781619       26.0201391206
  N         6.0975545084       -1.1435615142       27.8100398986
  C         5.6133956959       -0.5662750801       29.9751059625
  C         5.4142476662        1.6466766335       30.8858431182
  H         6.0839656606        3.2338824866       29.6060157290
  C         7.6972533543        1.4281980938       19.5120641413
  C        10.2635023135        1.4591635599       20.2442193961
  C         9.6165728026        4.0771440709       18.2060521609
  C         9.7999259992        5.4107062070       18.1438754327
  H         1.6312446469        4.8562668023       25.1181792416
  H         2.9882830341        4.2131844436       26.0264757268
  C         1.5983790060        5.1622043127       27.3994030136
  S         5.8418236260       -2.5958321278       28.5371157010
  N         5.5621093823       -1.9477872781       30.0162751944
  C         5.3404599091        0.1752241994       31.1409503915
  H         5.1438729707        2.3013283475       31.7103225458
  H         7.4139682149        0.6789946603       20.2867801351
  H         8.0189962964        0.8403621431       18.6225977638
  C         6.4582620691        2.2582616157       19.2427948162
  H        10.4427864463        0.9639537801       19.3420903657
  H        10.0687333646        0.6596799269       20.8996789279
  C        11.4713069390        2.1863886721       20.8676957658
  H         9.6225819301        3.3149988743       17.4164815328
  C        10.0980503335        6.1787569380       16.9034033666
  H         1.0581821693        4.1728493191       27.4849264342
  H         0.8231373265        5.9065775654       27.3839931361
  C         2.6355857798        5.3202570492       28.5191311229
  C         5.1290792470       -0.4419667111       32.3685822430
  H         6.8611519260        3.2631763312       18.9036381721
  H         6.0047256615        2.3866864834       20.2072372283
  C         5.3860841104        1.6957653747       18.1784836589
  H        11.4482130096        2.1671085350       21.9246863083
  H        11.4317765368        3.2015068733       20.5996512356
  C        12.8897344136        1.6964546170       20.4882599598
  C        10.0737057398        7.6484491527       16.6778537123
  C        10.3341062288        5.4128573634       15.6408508248
  H         3.1667604354        4.3216524066       28.5778961286
  H         3.2718815150        6.1737183680       28.3458168400
  C         2.0079076837        5.5146770760       29.8820142558
  H         5.1438392287       -1.5255386429       32.4082044333
  C         4.9267808546        0.0058107608       33.6397956708
  H         5.5420957504        0.6255858383       18.1514809216
  H         5.5781367076        2.1410118087       17.2762976048
  C         3.9288322132        1.9634691048       18.5660735732
  H        13.1595146316        0.8884661725       21.1256875605
  H        12.7942308187        1.3720856012       19.5306577805
  C        13.7860829476        2.8777657827       20.5762066034
  N         9.7507536410        8.5858774481       17.6826944203
  C        10.3325715357        8.2474404645       15.4437962026
  C        10.6092267953        5.9697345978       14.4077668597
  H        10.2932186677        4.3653148295       15.6549096539
  H         1.0006896459        4.9955122225       29.9614183632
  H         2.7556778416        5.2646818981       30.7383364262
  H         1.6676570232        6.5628466492       29.9055212720
  S         4.6873569298        1.6251097714       34.1517652427
  C         4.9123078672       -1.0154210538       34.7514447766
  H         3.9148353739        2.5985292763       19.4682221724
  H         3.4115361864        2.6320925387       17.8528101689
  C         3.1554970497        0.7114094817       18.9000936509
  H        13.3277574911        3.7830650002       20.0937269479
  H        14.7132721075        2.6159586362       20.1151878163
  C        14.1388470676        3.3282308439       21.9565658275
  S         9.7311725392       10.0290007537       17.0192996899
  N        10.2227667807        9.6091284433       15.5489734104
  C        10.7131673741        7.4595215971       14.2878356276
  H        10.9462087936        5.4338045334       13.5355481006
  C         4.4399299003        1.0479373463       35.7810692343
  N         4.4757277798       -0.3162334227       35.8366206505
  O         4.8334160496       -2.1834958469       34.6216009036
  H         2.2212258990        1.1030368339       19.2888783266
  H         3.6611840723        0.2339501410       19.7428842463
  C         2.9211783625       -0.1180308275       17.7262836589
  H        14.7106830917        4.1999181263       21.9575490655
  H        13.2692068449        3.5247063309       22.5716724964
  C        15.0264710834        2.2888600520       22.7489884902
  C        10.9502992505        8.1937110130       13.0715425334
  S         3.9078115078        1.9172642166       37.1549105032
  C         4.4938527172       -0.9341311731       37.1279437584
  H         1.9910434463        0.1472827612       17.2403120978
  H         3.6896591030        0.1548215392       16.9615651745
  C         2.8478155901       -1.6320275597       17.9238290882
  H        14.8443436759        1.2568784383       22.5778246101
  H        14.6440919839        2.3650368330       23.7515871347
  C        16.5319539355        2.5122406214       22.9886100907
  H        10.6518432028        9.2294076215       13.1641333153
  C        11.5998427581        7.8892393670       11.8935221400
  H         3.9627965693       -0.3709773357       37.9461907389
  H         3.9318472813       -1.8865348485       37.2170237354
  C         5.9237214967       -1.2004796961       37.5119133862
  H         3.1303618781       -1.8592475333       18.9829468772
  H         3.3858570371       -2.1640078400       17.1395834083
  C         1.3667911184       -2.0292307552       17.5898150127
  H        16.7554347315        3.5237670324       23.3761068625
  H        16.8845459681        1.8820506135       23.7684056162
  C        17.4863632755        2.3232176500       21.7965481129
  S        12.4124715597        6.3639762616       11.5053837860
  C        11.6099717603        8.9560864059       10.9066106580
  H         5.9408605386       -0.6934277418       38.4742910121
  H         6.1450160874       -2.2951071269       37.5776510078
  H         6.6454707627       -0.8043673622       36.8155113177
  H         1.2809220072       -3.0902119247       17.9993357474
  H         1.1110976878       -2.1216147687       16.5011190696
  H         0.5650342648       -1.4374420565       18.0681130721
  H        18.4451334786        2.4274904986       22.2412764553
  H        17.3530277975        3.1781566649       21.1477065484
  H        17.4029335083        1.3882829636       21.2456407777
  C        12.6662822657        7.2026377226        9.9501914678
  N        12.3146150142        8.4750123265        9.9367019006
  O        11.0338414622       10.0398112085       10.9429511790
  S        13.7284933381        6.5879249518        8.6835705329
  C        12.4685313981        9.2528833507        8.7610183488
  H        12.5096117106       10.3606477862        8.9054388716
  H        13.2799927747        8.9989080791        8.1390484785
  C        11.2120358450        8.9879754276        7.9401354997
  H        11.5736937652        9.1592418294        6.9533044414
  H        10.7832149844        7.9986796778        8.0089942822
  H        10.4824954323        9.7459076214        8.2019755375
  H        -1.7251777154       12.6184730695       16.9642874307
  C        -2.2396315039       13.5292201975       16.5192106203
  H        -1.3918643142       13.8488161237       15.8991496288
  C        -2.6900359435       14.5245422145       17.5780870513
  C        -3.2119871531       13.1492519937       15.4529506519
  C        -3.0613501283       13.8186006355       18.9102337459
  H        -1.9987664596       15.3105078898       17.9389286016
  H        -3.5981538755       15.0737591275       17.2531867704
  H        -2.9285250994       12.3329182908       14.7792884661
  H        -4.0813680952       12.8652629045       16.0910085064
  H        -3.5066657757       14.0183387592       14.8843170404
  C        -1.8233377721       13.4609663840       19.8469170692
  H        -3.3936439728       12.7945608107       18.7416933904
  H        -3.9119305516       14.3293917112       19.4858250024
  C        -2.2003104987       13.3548335840       21.2975015977
  H        -1.2313458249       12.6431025721       19.4517389054
  H        -1.1109604821       14.3230240120       19.8870049047
  C        -1.1181256979       12.6163227690       22.1092219377
  H        -3.1527488532       12.8365310428       21.5710124042
  H        -2.3076626361       14.3770308726       21.6914543249
  C         0.1559022885       13.4219259554       22.3768682916
  H        -1.5733889307       12.3897068294       23.0425309967
  H        -0.9236338621       11.6132469965       21.6478204363
  C         1.2479842717       12.6593266944       23.1900915177
  H         0.5094390818       13.9267660777       21.4547306519
  H        -0.2497602149       14.2324293307       22.9396807798
  C         1.5485068159       11.3128144683       22.5004506062
  C         0.7437397936       11.8481944967       24.3760658038
  C         2.4464985898       13.5517787371       23.4027787142
  C         1.1409511718       10.1695078724       23.2164509961
  C         2.0171673080       10.9385229214       21.1890763494
  C         0.6295420732       10.4986557313       24.4666664551
  C         0.3969833701       12.5480305371       25.5136621112
  H         2.5981826110       14.1195308241       22.4511248718
  H         2.1764039894       14.2735383944       24.0815669795
  C         3.6761164286       12.9486096661       24.0245134734
  S         1.4655181819        8.7085408521       22.4412025897
  C         2.0410079607        9.5966954635       21.0092742025
  H         2.3311892216       11.6876703386       20.4947875923
  C         0.1907081125        9.8993429582       25.6044144184
  H         0.5404674993       13.6504687164       25.6012449961
  C        -0.0835065072       11.9674183153       26.6515696978
  H         3.9331848217       11.9864455760       23.5448273171
  H         3.5461892159       12.6257355409       24.9538573604
  C         4.8559870255       13.9708999311       24.1095344518
  C         2.4141701966        8.8588462036       19.7709000239
  C        -0.1560311836       10.6495796502       26.7177644887
  H         0.2995345773        8.8547104626       25.7264229686
  C        -0.4980151719       12.3796036563       27.8937251141
  H         5.6493272177       13.5618687519       24.7536955123
  H         4.5933085963       14.8735192989       24.6843317445
  C         5.5888158234       14.2071185337       22.8335173839
  C         2.3518129066        7.4411926758       19.5491609286
  C         2.8716450243        9.6545052441       18.6851221362
  C        -0.5458778526        9.9301843111       27.9972457466
  C        -0.7996401310       11.2874669729       28.6861835347
  S        -0.6338620339       13.9021192069       28.6919059818
  H         6.1741964863       15.0685924771       22.9599226740
  H         4.9898664452       14.4495791401       22.0281529454
  C         6.4108878050       13.0275461030       22.3371112360
  N         2.0055674984        6.4116196504       20.4180458438
  C         2.7244024899        6.8943444755       18.2866014102
  C         3.1148303877        9.1387431845       17.4190439490
  H         3.0255394277       10.6981524392       18.8080012063
  C         0.5573319002        9.1262832076       28.6994221131
  C        -1.8841177307        9.1633392012       27.7752464938
  C        -1.1142362320       11.7030746566       29.9931303306
  C        -1.2556423213       13.0594171814       30.1212587374
  H         7.0439243498       12.7977548012       23.1785632486
  H         5.8943716841       12.0801957517       22.1409370167
  C         7.3074211017       13.3291652517       21.1452664207
  S         2.2658464469        4.9555874032       19.6782492146
  N         2.6748450795        5.5097793404       18.2116113341
  C         3.0523908842        7.7282005368       17.1090162125
  H         3.4702869981        9.8904617529       16.7258323739
  H         0.8258217005        8.3276115396       28.0117573790
  H        -0.0241397593        8.6625352766       29.4523760172
  C         1.7538623668       10.1018238163       29.1582022821
  H        -1.5936556768        8.4872920944       26.8834107600
  H        -2.0348879816        8.5700385464       28.6613016589
  C        -3.0451348061       10.1738836817       27.4231235761
  H        -1.2366193671       10.9688714836       30.7585221616
  C        -1.5113776317       13.8010160527       31.3780658647
  H         8.1791384144       12.7814922950       21.2900308649
  H         7.7482657252       14.2689717132       21.3075483787
  C         6.6805919089       13.1554673243       19.7300864099
  C         3.3335258061        7.1173566982       15.8332488648
  H         2.0915901201       10.7628223749       28.3381047797
  H         1.5771913457       10.8631341180       29.9280442316
  C         2.9630940027        9.3020379154       29.6739284015
  H        -2.8796710900       10.7794512021       26.5114084737
  H        -3.0712960928       11.0174289981       28.0630606380
  C        -4.3140575143        9.3467585391       27.4661174871
  C        -1.5302203004       15.2214374444       31.5446650245
  C        -1.6112989588       12.9926867917       32.6401579443
  H         6.7952086431       13.9835902077       19.0528649691
  H         7.0746354746       12.3106351582       19.1868274799
  C         5.2561998095       12.6300192983       19.7152652569
  H         3.2838106646        5.9916682862       15.8014733979
  C         3.7024202234        7.6880139152       14.6275541081
  H         3.3376609861        8.6073101507       28.9485360567
  H         2.6622556006        8.7677997514       30.5131958904
  C         4.1652703720       10.1168219189       30.2140151022
  H        -4.1246857195        8.3090276587       27.1625782519
  H        -4.6082017217        9.2908158118       28.4739786340
  C        -5.3746498243       10.0200596777       26.7007650407
  N        -1.4983088497       16.1576314155       30.4667280713
  C        -1.7531000230       15.8503612170       32.7760969625
  C        -1.8899539382       13.6390197757       33.8788145705
  H        -1.6274082074       11.8803705077       32.6444333315
  H         4.8696803997       12.6288231900       18.7650274716
  H         5.0842397688       11.6824568961       20.2518665909
  H         4.6092203538       13.3614360999       20.1843463915
  S         3.8681346743        9.4217287185       14.2951651792
  C         4.0299660412        6.7616184748       13.5315243897
  H         4.2087032820       11.1122895179       29.7277441664
  H         3.9488447755       10.1359396888       31.2876927744
  C         5.4579676791        9.3136302448       29.9909014255
  H        -5.0242242144       10.3627332474       25.7508763091
  H        -5.3753738648       10.9300791254       27.2802715208
  C        -6.6238091454        9.2251740812       26.3934526947
  S        -1.5591418671       17.6420014526       31.1228021455
  N        -1.8215410188       17.2116482607       32.6665811054
  C        -1.9639304489       15.1410803961       34.0070095656
  H        -2.1300156285       12.9448236750       34.6638410100
  C         4.2564812679        8.8856614818       12.7011510592
  N         4.3122223130        7.5559229134       12.4830347645
  O         4.0356479762        5.5708762599       13.5422490930
  H         6.2820310916       10.0586260690       30.1755883998
  H         5.6202306069        8.9110977231       28.9796923757
  C         5.5879256917        8.1303527705       30.9982843722
  H        -6.4390001094        8.3043572080       25.8258154132
  H        -7.1598936524        9.0709492078       27.3591240554
  C        -7.5548936380       10.0963023519       25.5153032324
  C        -2.3705795458       15.9106549171       35.1684399823
  S         4.3531747418        9.8758028486       11.2938628267
  C         4.4332070600        6.9660568563       11.1776689313
  H         6.4074952037        8.4723526578       31.7726348248
  H         4.7711009500        7.9158934157       31.6179954753
  C         6.1228624396        6.8414294591       30.3959158296
  H        -7.1211100907       10.0668231026       24.5452942415
  H        -7.4162328045       11.1450137919       25.7965841653
  C        -8.8921181627        9.5638359883       25.3294287821
  H        -1.9731803080       16.8907511470       35.2529820723
  C        -2.9156335220       15.5445326417       36.3649822907
  H         5.1763911595        7.5018252978       10.5693718164
  H         4.7110009174        5.9008490132       11.2263153268
  C         3.0381774930        6.9258737706       10.4851548545
  H         6.8345963826        6.9625685116       29.5792170083
  H         5.3041772120        6.2520602300       29.9626490654
  C         6.7738221816        6.0341105039       31.5758845800
  H        -9.2451186400        9.8274067803       24.3638534134
  H        -8.7081091029        8.4260879338       25.2877949529
  C        -9.8191336422        9.9930940144       26.5254822029
  S        -3.5197739258       13.9973635504       36.7522782462
  C        -3.0821432358       16.6335517075       37.3727105661
  H         3.0203376103        6.5324518379        9.4964695875
  H         2.3371711008        6.2813509975       11.0172904474
  H         2.5347773756        7.9078137113       10.3821263687
  H         6.2378666610        6.0960870662       32.5395298762
  H         7.7011166537        6.5446937256       31.6988031132
  H         7.0552165097        5.0257946579       31.3787172587
  H        -9.3588064418        9.6114335437       27.4983521429
  H       -10.8086413657        9.5565866768       26.3888438879
  H       -10.0497326050       11.0743010606       26.5616826841
  C        -3.7972018354       14.7575448348       38.3710172611
  N        -3.6205281284       16.0712574752       38.4587610194
  O        -3.0522059254       17.8789800256       37.1261261123
  S        -4.4447060736       13.9943016208       39.8158738353
  C        -3.7835291313       16.8375180360       39.7561348862
  H        -4.1188250395       17.8248353314       39.5049804675
  H        -4.4571154297       16.4432139065       40.4812139265
  C        -2.4353805693       17.0382162459       40.3885317389
  H        -1.6722444883       17.5055561352       39.7749289537
  H        -2.5824038692       17.8026935510       41.1305554225
  H        -2.0096674130       16.0692824112       40.7925813016
