352
 i =    67200, time =    67200.000, E =        25.0432962447
  H        10.0690871733        5.0796284085       31.2167072844
  C        10.6443553158        5.8640126742       31.6642622362
  H         9.8671757089        6.5051522600       32.1442662445
  C        11.3039727185        6.7279686295       30.5488355465
  C        11.5746294912        5.2551961686       32.7410636056
  C        11.9563917479        5.8704314658       29.4784249034
  H        10.5628083589        7.3233092470       30.1114281020
  H        12.0679217057        7.3065479304       30.9718873132
  H        11.0451724568        4.3629709999       33.0900785964
  H        12.5157571661        4.8748826428       32.3321225426
  H        11.7850650857        6.0566675204       33.5207047520
  C        10.9998969291        5.1298623754       28.6327932519
  H        12.7086609103        5.1732366739       29.9075285352
  H        12.5423331647        6.5835911166       28.8730443129
  C        10.2797944057        5.9840109089       27.5695767450
  H        11.6582966306        4.4682208035       28.0996727962
  H        10.2766977335        4.5813268149       29.1590129882
  C         9.6893891355        5.1225366677       26.4933776584
  H        10.9884213138        6.6707758887       27.1465493901
  H         9.4592164438        6.5273870543       28.0420514963
  C         8.5123047171        5.8712405782       25.7770859655
  H        10.3470398192        4.6896709699       25.8051140958
  H         9.2805116204        4.2914386960       27.0864496939
  C         7.4563046184        4.9155955904       25.0898289840
  H         8.0189142331        6.5298169765       26.5303970798
  H         8.9904239356        6.3967305527       24.9021979085
  C         7.1156554441        3.5664350120       25.8850487278
  C         7.8963296242        4.0796111662       23.9367819213
  C         6.2102418205        5.6503893292       24.6371752825
  C         7.2855813687        2.4604679029       25.1124439615
  C         6.5697440993        3.2100433807       27.1573302597
  C         7.6973403673        2.7635108426       23.8524192056
  C         8.2898651918        4.6782992056       22.7490973470
  H         5.6008497333        5.0202011376       23.9429791153
  H         6.5748392845        6.5186334443       24.0467321811
  C         5.0845969674        6.0559095343       25.6845028907
  S         6.9456507825        0.9563616958       25.9400622502
  C         6.4215663571        1.8584284488       27.3625443387
  H         6.3270796967        4.0711692553       27.8746897929
  C         7.9519536521        2.0455676947       22.7109218082
  H         8.2908413008        5.7826522539       22.7775065996
  C         8.4723101575        4.0444308767       21.5708240069
  H         4.8993903001        5.2295476870       26.2648865098
  H         5.2933291991        6.8469290151       26.3832885012
  C         3.8261908937        6.5139928267       24.8915691076
  C         5.8386625707        1.2726749865       28.6005399451
  C         8.3291293194        2.7132447121       21.4897255689
  H         7.8268250264        0.9871004747       22.7590684382
  C         8.8300858826        4.4386917049       20.3251766775
  H         3.5936368147        5.7201994577       24.1874218003
  H         4.1173496790        7.4737993895       24.3382791685
  C         2.6161291467        6.7607732827       25.7702279236
  C         5.8708462597       -0.1059803450       28.8425274698
  C         5.4647662979        2.1228425407       29.7535643404
  C         8.5606163615        2.0379313647       20.2042065016
  C         9.0074229353        3.3626542028       19.5058320221
  S         9.2401750808        5.9426583070       19.5468043005
  H         2.0441186024        7.3888203923       25.2056266910
  H         3.0605149659        7.2742978389       26.6856948521
  C         1.9303942336        5.5550675618       26.2933926584
  N         6.1842158132       -1.0635058455       27.8581661472
  C         5.6504230133       -0.7089946398       30.1041530957
  C         5.3092067947        1.5726347869       30.9752465496
  H         5.2412416245        3.1414536343       29.6568901666
  C         7.3253412712        1.4714958599       19.6417738167
  C         9.9023486004        1.1400682366       20.2180618078
  C         9.6235429367        3.7288208608       18.2913445258
  C         9.8216081942        5.1185309728       18.2013257309
  H         1.2751129391        5.0257482057       25.6363957595
  H         2.7619617405        4.8567883498       26.5991233395
  C         1.1983629531        5.6562116995       27.5975619773
  S         6.1959202022       -2.5760119093       28.5379439915
  N         5.7380908490       -2.0893492336       30.0054875552
  C         5.3838822192        0.0975468511       31.2417889037
  H         4.9422635980        2.1990538821       31.8062628174
  H         7.1379474002        0.4798619239       20.0621849809
  H         7.6364189300        1.3620028576       18.6006771103
  C         6.0800881577        2.3758489177       19.5313554048
  H        10.1330395151        0.7853509664       19.2203245934
  H         9.7015205996        0.2809358765       20.8750070095
  C        11.1412736576        1.9076120939       20.7656584885
  H         9.8824322543        2.9194543114       17.5982266213
  C        10.3219806555        5.9929148801       17.0567213250
  H         0.6562174023        4.7440984538       27.6323810373
  H         0.4290326070        6.5132282558       27.5273832047
  C         2.1955009308        5.5836539440       28.7722855920
  C         5.1615357790       -0.5288974396       32.4619576528
  H         6.2013514871        3.2094325652       18.8740192682
  H         5.8587032292        2.8171752938       20.5184780538
  C         4.9290526681        1.5824077107       19.0139399048
  H        10.8587971979        2.4181944985       21.7148171533
  H        11.5167582162        2.7349656806       20.0941962908
  C        12.4064134061        1.0925942130       20.9851503613
  C        10.4059233429        7.4029243917       17.0154217629
  C        10.6785509172        5.2277363573       15.8319193950
  H         2.7550966603        4.6060432427       28.9286732885
  H         2.9191226536        6.3981403584       28.7055362432
  C         1.4934778880        5.7752138483       30.1057120798
  H         5.3256975748       -1.5593569475       32.4863994759
  C         4.8771486786       -0.0314410890       33.7550062853
  H         4.2503830621        2.1339761576       19.6047565695
  H         5.0462228016        0.5521459969       19.3185158211
  C         4.6080576717        1.9013744897       17.4936898628
  H        12.1979277494        0.4776249234       21.8670674732
  H        12.5750384391        0.3529586076       20.2092645193
  C        13.5737464643        2.0499999282       21.2771847119
  N        10.2809679200        8.3823973548       18.1020625100
  C        10.7543771176        8.0728240224       15.8640451276
  C        10.9412211177        5.9109019446       14.6458198786
  H        10.5527620161        4.1575775013       15.7893878309
  H         0.9419987531        4.8646435828       30.3216122265
  H         2.1989714689        5.8581021675       30.9670256121
  H         0.9330753302        6.7032604525       30.1738650756
  S         4.6549195899        1.5991809177       34.2798803955
  C         4.8358218674       -1.0020810794       34.8862757832
  H         4.9280511915        2.8874777457       17.1369476077
  H         5.1299550120        1.2360083585       16.8175132025
  C         3.1463125033        1.6861828581       17.2204643912
  H        13.0193713564        2.8285678827       21.7232536891
  H        14.0156021809        2.4435654848       20.4014975272
  C        14.6305031647        1.3707040535       22.1950058525
  S        10.3180261137        9.8938341610       17.5608761465
  N        10.6216277135        9.4831649474       15.9632559215
  C        10.9947328854        7.3995334323       14.6629695835
  H        11.1753062213        5.3929071968       13.7156747930
  C         4.3698356242        0.9190633579       35.9099273881
  N         4.5536746776       -0.4271322605       36.0260349795
  O         4.8336366700       -2.2028770021       34.6535468913
  H         2.9228793361        1.4350033593       16.1439547896
  H         2.6871674509        2.6298603463       17.4836812356
  C         2.4220817940        0.6008730524       18.0959281337
  H        14.3484115241        1.0679756248       23.2197667087
  H        14.7589173432        0.4025912131       21.7175522933
  C        15.9301370687        2.1351372455       22.1543795275
  C        11.1852555001        8.2638296783       13.5005387094
  S         3.9370126355        1.7709729055       37.3818510703
  C         4.6625117803       -1.0891927865       37.2941980465
  H         2.2592120924        0.7593243042       19.1614923190
  H         1.4362441819        0.4321100395       17.7030975734
  C         2.9366287067       -0.8306756578       17.9420151710
  H        15.8784831630        2.8983317330       22.8859698289
  H        16.0909358614        2.5224917808       21.1369410629
  C        17.1428268900        1.2572552107       22.4434249378
  H        10.7948249098        9.2431607522       13.6691109385
  C        11.6720582861        8.0823709222       12.2433850014
  H         4.1350259430       -0.6866896745       38.1805453904
  H         4.4255447670       -2.1036991931       37.2779084559
  C         6.1350251357       -1.4163110077       37.7023072283
  H         2.9986064723       -1.2454656637       18.8862929879
  H         3.9178098463       -0.8368308645       17.6086937537
  C         2.0931764001       -1.6902540220       16.9366009174
  H        16.8788867492        0.7047418957       23.3130844439
  H        17.3029707396        0.5295978161       21.6385347947
  C        18.4072182932        2.1184797783       22.6994274061
  S        12.3728476354        6.6580769164       11.6245417267
  C        11.7381216759        9.2306542885       11.2777628662
  H         6.3011256608       -1.2623500355       38.7539439348
  H         6.4138909783       -2.4396762265       37.5166771133
  H         6.8312902573       -0.7498224479       37.1544152380
  H         1.1829159334       -2.1608943944       17.4414328996
  H         2.7102894400       -2.5306569249       16.6347799431
  H         1.8420535093       -1.1495364557       16.0362338521
  H        18.6372766445        2.1029594036       23.7787426057
  H        18.3162329775        3.0647814033       22.2225699143
  H        19.3056295618        1.6023691158       22.2523159587
  C        12.6890290602        7.5562482931       10.1441822331
  N        12.3104997659        8.8693593635       10.1271254327
  O        11.2346254345       10.3275295368       11.5326877142
  S        13.1095852098        6.8013221997        8.6639144505
  C        12.4871366178        9.7226942471        8.9594093782
  H        12.8212956230       10.6937652292        9.2136424463
  H        13.1436770794        9.3008769068        8.2462559826
  C        11.1620747155        9.8266891303        8.1139281524
  H        10.3481213603        9.0479800818        8.3661413227
  H        10.7433778661       10.8902545385        8.1944801805
  H        11.3799240549        9.6054184519        7.0494786621
  H        -1.6257570397       14.2767788431       15.6561999329
  C        -2.6470447414       14.3453017938       16.1012777426
  H        -2.8636597777       15.3274287284       16.1467278259
  C        -2.5304866508       13.7450564536       17.5470705390
  C        -3.6972549311       13.6765779612       15.1195557653
  C        -2.2171587891       14.7583308707       18.6486755464
  H        -3.4100676787       13.1566242670       17.9078575297
  H        -1.8552581032       12.9230783138       17.4346633295
  H        -3.5051866872       12.6945591472       14.7654908882
  H        -4.6478222339       13.8510953470       15.6922454146
  H        -3.9077096449       14.1826452479       14.2013068911
  C        -1.2930665613       14.3025537445       19.7978745253
  H        -3.1842624461       14.9957107073       19.0459957458
  H        -2.0046642389       15.6854545402       18.1820472575
  C        -1.9523390562       13.9460579781       21.1546182840
  H        -0.9330744807       13.3768078397       19.4408743367
  H        -0.3979703869       14.8355496327       19.9323858397
  C        -1.0266257081       13.1639935820       22.1049166945
  H        -2.8397544756       13.2626534809       20.9734038822
  H        -2.4053151220       14.8169459160       21.6375878484
  C         0.0110725082       14.0962535079       22.8026522937
  H        -1.6503892171       12.7313921081       22.8315655282
  H        -0.4831879186       12.3853034536       21.5965915538
  C         1.2236875473       13.3382715461       23.4658401124
  H         0.4097831801       14.7092149142       22.0102725747
  H        -0.4343438462       14.7573353648       23.5484929290
  C         1.6727894855       12.0267560997       22.6643157840
  C         0.6933458299       12.4774865865       24.5641669684
  C         2.3055774358       14.3860042236       23.7356145189
  C         1.3796529368       10.8829567657       23.3731401263
  C         2.1098949051       11.6507171914       21.3640704523
  C         0.7663208132       11.1054117294       24.6004065556
  C         0.2141190360       13.0465198591       25.6893430276
  H         2.5206551040       14.9831379729       22.8606385364
  H         1.9494505775       15.0520596801       24.5290085631
  C         3.6478124079       13.7521101924       24.2653362062
  S         1.8826541051        9.4682451909       22.5994744393
  C         2.2901309728       10.3565195547       21.1342342720
  H         2.1757810805       12.4917910084       20.7100778390
  C         0.4382342523       10.3704435974       25.7407444753
  H         0.1744935493       14.1571690425       25.6088227194
  C        -0.1836735248       12.3723388406       26.8030071777
  H         3.5813187358       12.6687119001       24.1480826691
  H         3.8575663701       13.9863376986       25.3291732049
  C         4.9017863455       14.3810077701       23.5748288458
  C         2.7826846681        9.7165566501       19.8444818546
  C        -0.0074672259       11.0078367985       26.9326230704
  H         0.6802626708        9.3557383812       25.8384672523
  C        -0.6137772937       12.7176018430       28.0540880157
  H         5.8390095388       13.9833997277       24.0768935026
  H         5.1531132905       15.4072450724       23.8260167456
  C         5.0028482638       14.2203249437       22.1336782782
  C         2.7618725670        8.4142988943       19.6121314685
  C         3.1839128745       10.5823976850       18.6852848903
  C        -0.3613819516       10.3284007263       28.1486252510
  C        -0.7860314387       11.5893765586       28.8748563964
  S        -0.8114966129       14.2514576771       28.8891034707
  H         5.4287937366       15.1316587657       21.7629745899
  H         4.0308865712       14.1428099335       21.7464228405
  C         5.7730508472       12.9311900140       21.8393883893
  N         2.3433620664        7.4122953839       20.5360497218
  C         3.0260873318        7.8438114098       18.3840016945
  C         3.4583165331       10.0516122933       17.4264031030
  H         3.2506122261       11.6374338105       18.9111470776
  C         0.8681567159        9.5946533046       28.8512206657
  C        -1.5965947991        9.3451450875       28.0825093023
  C        -1.0110110366       11.9804632797       30.2151874407
  C        -1.1051062671       13.3666201302       30.3546583705
  H         6.3405052886       12.5686809562       22.6952611527
  H         5.0176476523       12.2038426250       21.6252471028
  C         6.7376791260       13.1503963823       20.6450635301
  S         2.1953277680        5.9882272204       19.7581715888
  N         2.9077988466        6.4384662776       18.3870161902
  C         3.3402119142        8.5964808098       17.2687188453
  H         3.6598131332       10.7631884549       16.6657467221
  H         1.2861914143        8.7120212246       28.2292044112
  H         0.5403603923        9.0022249454       29.6982153454
  C         2.1469290133       10.3749810435       29.2581745955
  H        -1.4240055875        8.6416607312       27.2584674172
  H        -1.6141703007        8.8504366159       29.0593954695
  C        -2.9131848544       10.1006534317       27.8375992018
  H        -1.0715946182       11.2063077542       31.0443215913
  C        -1.3524630116       14.0562969123       31.6786959411
  H         7.4320690184       12.3548901020       20.7591638068
  H         7.3252924378       14.0719748086       20.8094178298
  C         6.1080895254       12.9900009341       19.2513493498
  C         3.7947372218        8.0013723233       16.0819358300
  H         2.6183304097       10.9033944181       28.3710367652
  H         1.9622115611       11.1841978930       30.0103669131
  C         3.1424753785        9.3488942220       29.7430534921
  H        -2.7980101843       10.6536678610       26.9297236463
  H        -3.2428482167       10.8639520545       28.4718806221
  C        -4.1179729088        9.1822439695       27.6083202057
  C        -1.5779603498       15.4453232841       31.7787659136
  C        -1.6695463108       13.3071862570       32.9556636232
  H         5.7293000752       11.9502056322       19.1351785829
  H         5.3866007945       13.8183068368       19.0801656162
  C         7.2113377397       13.1339238397       18.1462030398
  H         3.7857242042        6.9353332765       16.1573828622
  C         4.1288162969        8.4816034772       14.8634844000
  H         3.4283748127        8.5947987477       29.0239984582
  H         2.8585213337        8.8606710806       30.6978173948
  C         4.4847080346       10.0776900057       30.1179010932
  H        -4.0273222056        8.6228675803       26.6424938200
  H        -4.2373928715        8.3815446697       28.2967299909
  C        -5.3577442936        9.9923495831       27.4446909241
  N        -1.3689292196       16.4179424074       30.7588784965
  C        -1.9119661219       16.0669492175       32.9218769158
  C        -1.9618573710       13.9938093874       34.1543456029
  H        -1.6077318946       12.2390598441       32.8985075728
  H         8.0645838225       12.5540318030       18.4544537707
  H         6.9568513634       12.6936401791       17.1860819228
  H         7.5247132957       14.1831260766       17.9021728388
  S         4.2711614457       10.1099690789       14.3343088853
  C         4.3259532940        7.4597110402       13.8300665220
  H         4.6944544558       10.9235732257       29.4275464162
  H         4.2245124993       10.6539444845       30.9784103130
  C         5.6862710861        9.1275037097       30.1523670055
  H        -5.1752995857       11.0174344664       27.1187952103
  H        -5.8668915147       10.0173554524       28.3824226698
  C        -6.4101506389        9.2726839934       26.6291816544
  S        -1.7029309729       17.8881068105       31.3452644017
  N        -2.0133819507       17.4350330084       32.8861125182
  C        -2.1316843505       15.4371434653       34.1098215138
  H        -2.1420243211       13.5003047358       35.0925236666
  C         4.6550481220        9.4107925588       12.7541552391
  N         4.6438607546        8.0896871568       12.7276674812
  O         4.2248192444        6.2386051290       13.9667522826
  H         6.5804455783        9.6917002887       30.4309826900
  H         5.9172189807        8.7994124789       29.1143810201
  C         5.4692486302        7.8907893555       31.0429344683
  H        -5.8186521471        8.6875567395       25.8930240011
  H        -6.9621459353        8.5168502840       27.2022681682
  C        -7.2006658040       10.2713099705       25.8188676727
  C        -2.3983786442       16.2146001945       35.2689704156
  S         4.9260441034       10.2901635113       11.2313112968
  C         4.7826974394        7.2863760471       11.5214549798
  H         5.4404324823        8.3900028460       31.9938738387
  H         4.5264873806        7.4784600575       30.8507434083
  C         6.6289426266        6.9198194813       31.2653969605
  H        -6.6614533576       10.5022909826       24.9044508345
  H        -7.3467111862       11.2395861307       26.3278565866
  C        -8.5399415837        9.7096593644       25.2048545494
  H        -2.0687446955       17.2120022082       35.1673912081
  C        -2.9248815481       15.9725488560       36.4831883401
  H         5.4376407670        7.7676892072       10.7464266728
  H         5.1754456382        6.2768539183       11.7208733208
  C         3.4063254315        6.9936521020       10.9304023335
  H         6.3557753072        6.0540630475       31.9029190744
  H         7.3859076426        7.4999662891       31.8220002279
  C         7.2844699806        6.5106618036       29.9874087827
  H        -8.8067138823       10.2350637712       24.2817826003
  H        -8.3648201091        8.6147891337       25.0129144493
  C        -9.5866749602        9.9717861677       26.2673050319
  S        -3.6474908205       14.4949651375       37.0424107670
  C        -2.9567357094       17.1494538786       37.4299902627
  H         3.3430519443        7.4858612071        9.8824240266
  H         3.2540255423        5.8925958142       10.7949061261
  H         2.5428813649        7.2822026118       11.5768880630
  H         7.7366270003        7.2624476173       29.4495892559
  H         6.5159314547        6.0539960555       29.3365957068
  H         8.0604073903        5.7661631927       30.1241070555
  H       -10.6006588355        9.7524711277       25.9503942911
  H        -9.7069079458       10.9773602011       26.5778190016
  H        -9.3438331639        9.4287612596       27.1624718793
  C        -3.8844621792       15.3450233845       38.4806857876
  N        -3.5839547734       16.6749393047       38.4873827630
  O        -2.4852828890       18.3137098049       37.3217960842
  S        -4.9596350156       14.8741631617       39.8150262929
  C        -3.7226819988       17.5378757506       39.6243933346
  H        -3.8381789094       18.5902651916       39.3465793656
  H        -4.6504921128       17.3561590797       40.1961673220
  C        -2.5639973140       17.2206461935       40.6421817255
  H        -2.3141105376       18.0483727293       41.2924439854
  H        -2.8946040758       16.3432724364       41.2227182368
  H        -1.6965592896       16.9105344270       40.1118545792
