352
 i =    58900, time =    58900.000, E =        24.7382280141
  H         9.9175870448        5.1949463578       30.8678427477
  C        10.3984886952        6.1112623407       31.1077817603
  H         9.8480470421        6.9065383360       30.6997684199
  C        11.8772077783        6.0936337544       30.5329044053
  C        10.5128053688        6.1496240957       32.6376315038
  C        12.0131739224        5.6050141442       29.1231313720
  H        12.2914835498        7.0551884454       30.6359916899
  H        12.5132111583        5.4136647027       31.1400662647
  H         9.5163023556        6.0432752483       33.0723459202
  H        11.1944139685        5.3593706063       32.9820313143
  H        10.7535929741        7.1379023658       32.8866257864
  C        10.7103340699        5.8247120617       28.2612375763
  H        12.3808613946        4.5295194802       29.0548620968
  H        12.7910304207        6.2217609333       28.6506889347
  C        10.9033763648        5.4333958482       26.8910970388
  H         9.9000865085        5.2138294039       28.6963562956
  H        10.3322099941        6.8223571139       28.3528541321
  C         9.7981389313        4.5246467016       26.3004935970
  H        11.8570586485        4.8135757104       26.9026331949
  H        11.1040905715        6.2394917371       26.2219789198
  C         8.4967338854        5.2393367629       25.9899291708
  H        10.1611906996        4.0310708383       25.4184945473
  H         9.6514387316        3.7490866777       27.0083786294
  C         7.5148478527        4.4549992408       25.0908838301
  H         8.0255319921        5.3580608006       26.9457536138
  H         8.7933388938        6.1724399258       25.5533668996
  C         7.0857401860        3.1250452347       25.8418931840
  C         7.8993781322        3.6914408951       23.9112630317
  C         6.2348894358        5.2388311931       24.6350479005
  C         7.2454006339        2.0398715365       24.9644020765
  C         6.7656413437        2.7628823892       27.1352006991
  C         7.7030742080        2.3755874869       23.7510014121
  C         8.4440376711        4.3228637511       22.8471134003
  H         5.6180340527        4.5289540009       24.1576304182
  H         6.2588348612        5.9595430172       23.7985318842
  C         5.4743645282        5.8489219684       25.6895073072
  S         6.7101200352        0.5600120469       25.8052026323
  C         6.4590725746        1.4397051956       27.2468249021
  H         6.7894974066        3.5759903276       27.8992614934
  C         8.0852692409        1.7614608031       22.6100899908
  H         8.4754240249        5.4257645954       23.0510884368
  C         8.6395915154        3.7360694647       21.5982479388
  H         5.4408064656        5.1310628828       26.5295142680
  H         6.0127530369        6.7033792240       26.1820930399
  C         4.0361374797        6.0626109209       25.3929638390
  C         5.9770514372        0.8640516382       28.5900342773
  C         8.4662682724        2.4394305812       21.4410456104
  H         8.0246539578        0.7042475891       22.6372702389
  C         9.0017438834        4.1749872310       20.3575356971
  H         3.6297126549        5.1880029768       24.9177962359
  H         3.9148635438        6.9036565499       24.6707113408
  C         3.0812638372        6.1805202593       26.5651123437
  C         5.9918623661       -0.4746413329       28.9950852266
  C         5.6889851173        1.8183000737       29.7345222738
  C         8.8437101810        1.7967149184       20.1198906455
  C         9.1188965407        3.1501401039       19.4494110884
  S         9.2236959956        5.7333674128       19.5615461140
  H         2.1815791830        6.6173107977       26.1728136091
  H         3.4826507570        6.8260435650       27.3363353035
  C         2.5615394213        4.9321863839       27.2086204592
  N         6.2041822347       -1.5291854779       28.0736635570
  C         5.6994737201       -0.9035022297       30.2495892323
  C         5.2821663064        1.3699817232       30.9934070071
  H         5.6576403038        2.8772360505       29.6091854221
  C         7.6631905268        1.0881448016       19.4221750826
  C        10.1125028564        0.9281620807       20.2001422054
  C         9.5989332749        3.6321834751       18.1997623130
  C         9.6409022733        4.9798304078       18.1063352396
  H         1.8760951011        4.4367663340       26.4519006892
  H         3.3599617006        4.2085960299       27.3527960370
  C         1.8876467186        5.1191098071       28.5901871294
  S         5.8936038723       -2.9425986372       28.7757407991
  N         5.7004498732       -2.3199628374       30.3462883122
  C         5.3874682965       -0.0367522237       31.3203387245
  H         5.1271487085        2.0097085479       31.7438902783
  H         7.4430675957        0.0693496043       19.7385995395
  H         7.8462488432        1.0359573696       18.3499344645
  C         6.3844779140        1.9473122737       19.2788941306
  H        10.1611902914        0.3170140450       19.3417810030
  H         9.9496390801        0.1861737354       20.9713455205
  C        11.4411604479        1.7434863345       20.5191078456
  H         9.7203534477        2.8999204637       17.4313703937
  C         9.9011613753        5.8928996977       16.8962081465
  H         1.0947995710        4.3320224517       28.6993323366
  H         1.4281292457        6.1002783528       28.5995206761
  C         2.8174746587        5.0933296319       29.7435895932
  C         5.0708370455       -0.6573019584       32.5764721975
  H         6.6647762417        2.7735825439       18.6437983186
  H         6.1258991431        2.4438779289       20.1907355504
  C         5.1538492075        1.1548216196       18.7857530763
  H        11.3046950327        2.4119668052       21.4002025533
  H        11.6382960572        2.4537992031       19.7026584418
  C        12.6636050296        0.8080651753       20.7223890423
  C         9.9117229335        7.3157522511       16.7732761793
  C        10.1344301964        5.1559399029       15.6318953134
  H         3.3054784706        4.0978971694       29.7022405114
  H         3.4652993720        5.9462370375       29.4724776516
  C         2.1105801755        5.2702612885       31.1007897448
  H         5.4868074037       -1.6362774106       32.6912116758
  C         4.6768992389       -0.0829138040       33.7561683572
  H         4.6621737454        0.6285038896       19.6338574492
  H         5.4575434230        0.3062482738       18.1051786803
  C         4.1663094855        2.0138984597       17.8881351234
  H        12.4681465221        0.0184067816       21.4699841144
  H        12.7880039490        0.1398772056       19.8126838715
  C        13.9214188172        1.6178966080       21.1851396280
  N         9.5937149221        8.1913693608       17.8094244577
  C        10.2959061860        7.9892040617       15.6263014640
  C        10.5515517553        5.8212402446       14.4904448130
  H        10.0216247369        4.1331439354       15.5665108410
  H         1.1035476338        4.8762703749       31.0317905256
  H         2.5895033170        4.7228294433       31.9469166397
  H         1.8766633718        6.3056150995       31.1564851757
  S         4.3056846007        1.5306660375       34.1487619836
  C         4.5718021953       -1.0694874042       34.8781409701
  H         4.0970512509        2.9842891992       18.4666599982
  H         4.5533408230        2.1824052076       16.9065637189
  C         2.8423983149        1.3558431382       17.8407876312
  H        13.8489020454        2.6174496513       20.7436997029
  H        14.8698570400        1.1707254109       20.8100908837
  C        13.9375670121        1.9604435775       22.7015315950
  S         9.6744773623        9.7396464725       17.2988905027
  N        10.3282465793        9.3957875004       15.8158020114
  C        10.6074147567        7.3020803609       14.4774720144
  H        11.0167630134        5.2737778435       13.6912258276
  C         4.2916261846        0.9257289797       35.8101412055
  N         4.2867266637       -0.4001089891       36.0225489160
  O         4.7717726855       -2.2627970589       34.7978933104
  H         2.1101756925        2.1823130733       17.5935858070
  H         2.6329678335        0.9860256778       18.8315703084
  C         2.7071261214        0.1465912962       16.8931209776
  H        13.0756669934        2.2773565848       23.2265291572
  H        14.2304385442        1.0128210706       23.2381798144
  C        15.0488523450        2.9587973741       23.0956949193
  C        10.9637147949        8.1603653252       13.4101061009
  S         3.7501049935        1.8263183259       37.2372342639
  C         4.1337459047       -1.0365576417       37.3548781800
  H         2.5508808986        0.5312240416       15.8939316702
  H         3.7681036424       -0.2788825964       16.9349538331
  C         1.7888536639       -0.9048619785       17.4435032623
  H        14.6253846264        3.7308929849       23.7228651845
  H        15.3407616523        3.5470115297       22.1849718544
  C        16.3238967327        2.3010521877       23.7599398998
  H        10.6388449502        9.1475454341       13.5763424523
  C        11.3770775829        7.9675034899       12.0909613295
  H         3.4127168040       -0.5687073432       38.0230563043
  H         3.7571696543       -2.0266473507       37.0968198515
  C         5.5097055619       -1.2091657312       38.0506188531
  H         1.3868889867       -1.6143547184       16.6627765870
  H         0.8630316173       -0.3573022351       17.6991784770
  C         2.2939535765       -1.7957461876       18.6552795835
  H        16.6557809273        2.9019929613       24.5836223428
  H        16.0979802377        1.4334468542       24.3827595165
  C        17.2953779657        1.9915707578       22.6954805377
  S        11.8490459993        6.4389170260       11.4387351870
  C        11.3699457961        9.0765527418       11.1339917733
  H         5.2506430880       -1.5912541595       39.0860407103
  H         6.1429747642       -1.9487982862       37.5355314501
  H         6.0276910998       -0.2025219951       38.1856414891
  H         2.4211362312       -1.2883240769       19.5519289210
  H         3.2508752357       -2.3197986404       18.4543238101
  H         1.6407937261       -2.5642417833       18.8903462926
  H        17.3814405399        1.0018193373       22.3431432029
  H        18.2326937600        2.1834650413       23.1501407885
  H        17.2205908211        2.6039775074       21.8048786605
  C        12.2844128225        7.3413812559        9.9427119728
  N        11.9657061225        8.6769468956        9.9978562337
  O        10.8683527432       10.1679475099       11.3908574777
  S        13.0846300424        6.7440781292        8.5501339557
  C        11.9616396548        9.5188851664        8.8438760133
  H        11.9080618716       10.5531852534        9.2419589662
  H        12.9100731166        9.5018839094        8.3853695004
  C        10.8099528969        9.2111681850        7.8220268743
  H        10.4415946051       10.1446193282        7.3970692724
  H        11.1876383753        8.5572517836        6.9337040252
  H         9.9689790122        8.6657001180        8.3084418007
  H        -3.8548079676       12.8299527567       16.6079169135
  C        -2.7904219776       12.8815777956       16.3270042538
  H        -2.3978152640       11.8918736003       16.1535752016
  C        -2.0987241185       13.7121923396       17.3626416790
  C        -2.8279364274       13.4718515019       14.9029420857
  C        -2.7063195528       13.6233285257       18.7933154308
  H        -1.0041869900       13.4734036978       17.2734828814
  H        -2.1531952097       14.7817895489       17.1388679078
  H        -3.1837400830       14.5383756796       14.7952838122
  H        -1.8495872665       13.4045096357       14.3996936829
  H        -3.4001518566       12.7611652449       14.2953464616
  C        -1.8060255113       13.2621819288       19.8789963962
  H        -3.4878197156       12.8711327579       18.8135301775
  H        -3.1158226578       14.5592331890       18.9811850701
  C        -2.4601364799       12.9718033412       21.2316455353
  H        -1.4197545798       12.2730345001       19.6033248768
  H        -0.9751196568       14.0292989266       19.8944285621
  C        -1.5083968772       12.4029607607       22.2774949499
  H        -3.2229946674       12.2221525919       21.0294824755
  H        -2.9907564755       13.7726825389       21.7239658372
  C        -0.4044529434       13.3348734198       22.7128828546
  H        -2.0502362733       11.9814147551       23.1391728163
  H        -1.1267180428       11.4559618472       21.9024534739
  C         0.8192343120       12.5642263309       23.3474836950
  H        -0.0440863822       13.7788470275       21.8157079338
  H        -0.7740208581       14.2065621115       23.2477535312
  C         1.2266042234       11.2700318526       22.7089014686
  C         0.4796702396       11.8147854358       24.6185163032
  C         2.1559636419       13.5014743400       23.3721747411
  C         1.0778907250       10.1398381616       23.5145770560
  C         1.7219048531       10.9175976868       21.4669795973
  C         0.6552548704       10.4681324919       24.7768499454
  C         0.1430431165       12.4775041263       25.7666630971
  H         2.2642784369       13.7263163568       22.2835028835
  H         2.0569593338       14.4677929173       23.8374089099
  C         3.5068400499       12.7759651910       23.8400452393
  S         1.6959734357        8.6926725191       22.7250364033
  C         1.9599625991        9.5847185293       21.3363918621
  H         1.8306541807       11.6257916816       20.7137819971
  C         0.2557514575        9.8610981082       25.9367522732
  H         0.0943977165       13.5580248319       25.6579768528
  C         0.0217876967       11.8940395284       27.0076458909
  H         3.6448804840       11.9444633258       23.1337045659
  H         3.4181911879       12.2606606760       24.7533653907
  C         4.7169395758       13.7641772585       23.7250517944
  C         2.4668201682        8.9820832959       20.0476553952
  C        -0.0393969487       10.5408828740       27.1298696553
  H         0.2666934071        8.7902089918       25.9488485749
  C        -0.4866282572       12.2937322636       28.2556625906
  H         5.5193125445       13.4666471277       24.4217078355
  H         4.4044004999       14.6940513903       24.3105816167
  C         5.3493683892       14.0728538414       22.3990391364
  C         2.4645598354        7.6061978860       19.6755926941
  C         2.8927630615        9.9172656801       18.9651605260
  C        -0.3955281129        9.8416284187       28.3644618209
  C        -0.6686734907       11.2149410883       29.0932057276
  S        -0.8737553369       13.8115572390       29.0169443710
  H         6.0260139960       14.9849856528       22.3430148562
  H         4.5910043349       14.4182915557       21.7005721035
  C         6.1794864568       12.8762098698       21.9404198697
  N         2.2397455673        6.5386219047       20.5261194600
  C         2.8393034640        7.1685976981       18.3717623838
  C         3.1797261188        9.4587996556       17.6490298199
  H         2.9213106383       10.9904477312       19.1041683788
  C         0.7448442406        9.0185227893       29.0311678660
  C        -1.7474045124        9.1223060142       28.3311867846
  C        -1.2359527933       11.5718054747       30.3372256763
  C        -1.2623794918       12.9070085220       30.5118744367
  H         6.7656433434       12.5560974417       22.7804546971
  H         5.5608533751       11.9890732410       21.9299064728
  C         6.9026638497       12.9002756932       20.5940763297
  S         2.3237125049        5.1595654407       19.6249707020
  N         2.8452587854        5.8112340758       18.2262920200
  C         3.2542868079        7.9948731934       17.3371303419
  H         3.4795146472       10.1481954460       16.8927505853
  H         0.9815710484        8.1788678767       28.3381836921
  H         0.2835155837        8.5615777119       29.9302993919
  C         1.9540578181        9.8848812491       29.3977388955
  H        -1.6451443928        8.1729835401       27.7921696991
  H        -2.1504800848        8.9689491832       29.3038117498
  C        -2.8984783456        9.8789451349       27.6118586942
  H        -1.3029450137       10.8662743260       31.1044955309
  C        -1.5997452626       13.6807901642       31.7930370642
  H         7.3955869098       11.8364212851       20.4929157375
  H         7.7638201118       13.6059821425       20.6758201257
  C         5.9103330301       13.1900971701       19.4657889221
  C         3.4559899871        7.4340132857       16.0343299579
  H         2.3874763496       10.1423746469       28.4155806752
  H         1.7793966813       10.8054351357       29.9131545735
  C         2.9965801319        9.2596143342       30.3859291385
  H        -2.6389567374       10.1723721791       26.5840317691
  H        -3.0683491131       10.8301101100       28.0360724416
  C        -4.1808036510        9.1502083943       27.5062642424
  C        -1.7200312615       15.0851140172       31.9647814816
  C        -1.8290854847       12.8997540069       33.0180501330
  H         5.1607419721       12.4195247842       19.6000659615
  H         5.4718165723       14.2158623665       19.5335970545
  C         6.5763606776       13.0813666032       18.0689064866
  H         3.5495603786        6.3476284979       16.0059597599
  C         3.7005568799        8.0326128524       14.8171649349
  H         2.8339258442        8.2108001025       30.4085826886
  H         2.7808914976        9.6515943698       31.4498751297
  C         4.4501733492        9.5519881006       30.2103782198
  H        -3.9554880408        8.1910878954       26.9956533270
  H        -4.6966292113        8.8887883012       28.4647373228
  C        -5.0626439485       10.0106405937       26.6254795894
  N        -1.5250570330       16.0347091840       30.9636162839
  C        -1.9553101555       15.7435008156       33.1143653363
  C        -2.2021135367       13.5093139222       34.2346858577
  H        -1.8198994816       11.8529316056       32.9699741505
  H         6.8631424020       11.9887228824       17.9280020609
  H         5.9005311881       13.3810900413       17.2526077510
  H         7.4792031324       13.6874853325       17.9175517087
  S         3.9956621400        9.6578074196       14.4002097981
  C         3.8066391441        6.9877240826       13.7101388945
  H         4.5266654540       10.2680526540       29.4100173520
  H         4.8500749951       10.0917345399       31.0339067480
  C         5.2762917686        8.2994027566       29.9069697254
  H        -4.6747599943       10.1867042682       25.5998936844
  H        -5.1403021918       10.9961811930       27.0680075934
  C        -6.4271679958        9.3535946515       26.5146342513
  S        -1.4452749927       17.5269103507       31.5741159783
  N        -1.8494117407       17.1505607265       33.0930028881
  C        -2.3901391385       15.0116237563       34.2813672516
  H        -2.4121449131       12.9134169523       34.9945596224
  C         4.0661072884        9.0211627616       12.7463051902
  N         4.0161983780        7.6776621908       12.5913428012
  O         3.5682632821        5.7708320627       13.8063830536
  H         6.1654863487        8.6579463764       29.2740527652
  H         4.6680974673        7.5743498764       29.3192118424
  C         5.5922846739        7.6409396073       31.1353891920
  H        -6.2709830236        8.3453777636       26.4011105218
  H        -6.8453134194        9.5879153364       27.5152721620
  C        -7.3522797246       10.0841186474       25.5018879998
  C        -2.6917982804       15.8412412595       35.4402925210
  S         4.1287516314        9.9913623682       11.2356611032
  C         3.9907169178        7.1183159210       11.2525729159
  H         5.7645842258        8.3930821131       31.9220223384
  H         4.6636055641        7.0700375633       31.4410416036
  C         6.7600351471        6.7093990041       30.9784049437
  H        -6.8214688700       10.1617800839       24.6192442494
  H        -7.6337194640       11.0656535841       25.8729261116
  C        -8.5988322778        9.2619612918       25.1139769903
  H        -2.7418851879       16.8906340919       35.2442743977
  C        -3.1954143714       15.5663478663       36.7250016006
  H         4.7843680835        7.5563468428       10.6362658538
  H         4.3179068985        6.0371538133       11.4577362755
  C         2.6298816897        7.1172654723       10.6275782188
  H         6.6911384936        5.9505025799       31.6877107077
  H         7.6516543731        7.2565759470       31.1667016379
  C         6.8441902598        6.0429408301       29.5996244735
  H        -8.8913550761        9.7172710198       24.2055827351
  H        -8.3862988480        8.2258910931       24.9630572500
  C        -9.6186576340        9.3245682004       26.2224138463
  S        -3.7634677504       14.1044481643       37.3569855093
  C        -3.2289541222       16.7716797325       37.6695007813
  H         2.2706625410        8.0760660449       10.3041028942
  H         2.5748061176        6.4568045480        9.8163422522
  H         1.8339486788        6.9572377180       11.3640509499
  H         5.8821227744        5.6462749194       29.3031478055
  H         7.5574541572        5.2183059359       29.6367052967
  H         7.1477296897        6.7122175226       28.7976386152
  H       -10.6776921502        9.2556133576       25.8297884261
  H        -9.5309551379       10.1865581387       26.8455296626
  H        -9.4856270348        8.5087384543       26.9329576954
  C        -3.9558452233       14.9869940880       38.9233065261
  N        -3.6839102865       16.3230623853       38.8627381591
  O        -2.7804383456       17.8507447698       37.3843395887
  S        -4.2159187128       14.2661099305       40.5500892162
  C        -3.7427115002       17.2002391819       40.0272734374
  H        -4.0184700049       18.2228547353       39.7476733174
  H        -4.4895370874       16.8648248470       40.6825862815
  C        -2.4328599217       17.2888547474       40.8478551828
  H        -1.6120377102       17.6265760082       40.2635315037
  H        -2.7171991262       17.9202682408       41.7251612003
  H        -2.1414355332       16.3620945460       41.2471481705
