352
 i =    63000, time =    63000.000, E =        25.4269439031
  H         9.8719378560        4.6569287123       32.3258895439
  C        10.2311680850        5.6938455496       32.6025837165
  H         9.5587795833        5.9971462357       33.3087079136
  C        10.3032229538        6.5645850124       31.3868730549
  C        11.5771364641        5.5764922344       33.3089988468
  C        10.9649521654        6.0224041124       30.0857703120
  H         9.2955687180        6.9247885845       31.1440132666
  H        10.8449385101        7.4398254066       31.6737424579
  H        11.3411611907        4.9167051800       34.1418975688
  H        12.3132743584        5.1248388147       32.5812941739
  H        11.8805017855        6.5086171195       33.7390228569
  C         9.9522590961        5.4199747485       29.0302114595
  H        11.7048621834        5.2869892380       30.3544816684
  H        11.5875634965        6.7290872609       29.5317760323
  C        10.4836125976        5.5752284078       27.6303676648
  H         9.9495941028        4.3221067410       29.1541447152
  H         8.8883398279        5.7626285527       29.0437478361
  C         9.6494976685        4.9444963153       26.5581277342
  H        11.5139367938        5.1525771728       27.6535377189
  H        10.6496175741        6.6099164270       27.2557021948
  C         8.3409808040        5.7198615844       26.1547954061
  H        10.1467738203        4.6228967753       25.6679845341
  H         9.2325661796        4.0302372450       26.9592846039
  C         7.3227808645        4.8615278510       25.3366396694
  H         7.8717700861        5.8714355785       27.1308579486
  H         8.5370125637        6.6770084452       25.7650830919
  C         6.9999937644        3.5584128357       26.0443393796
  C         7.9351884000        4.1378746930       24.1676639737
  C         6.0047379890        5.4978476055       24.7939587071
  C         7.3594203789        2.4379095241       25.3025110053
  C         6.5075574476        3.2389451761       27.2912990507
  C         7.9070772989        2.8089387073       24.0804081841
  C         8.4494983759        4.8698713403       23.0751467126
  H         5.5772496052        4.8994855715       24.0002983367
  H         6.3388009417        6.4206156661       24.3000705776
  C         4.9348302995        5.8825211222       25.7274328966
  S         6.8701303428        1.0133673689       26.0295319902
  C         6.3757015797        1.9149331330       27.4728166252
  H         6.2459184229        4.0190588934       27.9246139272
  C         8.3952297171        2.2624014385       22.9179648494
  H         8.3425209443        5.9506925840       23.1547787362
  C         8.8130011683        4.3136653660       21.9484716219
  H         4.6179913179        5.0793063026       26.3682529420
  H         5.1568393055        6.8267571793       26.2000406254
  C         3.6671093341        6.0981584185       24.8789574619
  C         5.9426954765        1.2466763687       28.6901688312
  C         8.8006150782        2.9844291446       21.8166616723
  H         8.3304638393        1.1543935968       22.6811921652
  C         9.1028542656        4.7415873111       20.6834242248
  H         3.4623184734        5.3126383839       24.1170186081
  H         3.7513302250        7.0218659838       24.2813623434
  C         2.4045420967        6.2896033492       25.7290707899
  C         5.7693639370       -0.1564315266       28.8755485538
  C         5.6291539439        2.0852792502       29.8632963562
  C         9.0550411028        2.3351286191       20.5506707146
  C         9.4177282003        3.6762696266       19.8121442976
  S         9.4033593380        6.2365439440       19.8962792221
  H         1.7572135326        6.7950548111       25.0264558276
  H         2.5153208620        6.9875624567       26.5599897580
  C         1.7811788546        4.9295934322       26.0992846884
  N         6.1976697324       -1.1241981374       27.9528663062
  C         5.5440829337       -0.7031045618       30.1870559618
  C         5.2065987380        1.5176096325       31.0399826939
  H         5.7291082950        3.1651868217       29.7716693179
  C         7.7889407310        1.7095744841       19.9470701470
  C        10.2929238819        1.4963705477       20.5615047240
  C         9.8099103231        4.0673121829       18.4999636589
  C         9.8706862863        5.4225750923       18.4058782504
  H         1.0890995957        4.6558627905       25.3180757129
  H         2.5585550103        4.2026846507       26.0868115812
  C         1.1406015473        5.2390483789       27.4227661781
  S         5.8932256668       -2.6164507310       28.5763439679
  N         5.5535489853       -2.1443836269       30.1402739470
  C         5.0850200161        0.0406560972       31.2401440716
  H         4.9868884376        2.1269780026       31.8691032858
  H         7.5474761899        0.7895383237       20.4235152221
  H         8.1104492378        1.3841722420       18.9381663942
  C         6.5284020461        2.5867870751       19.9093624167
  H        10.7199058826        1.2211811889       19.5389416818
  H         9.9051979940        0.5103493324       20.8734047757
  C        11.3911842684        2.0246405352       21.4472713997
  H         9.9227021344        3.3464035295       17.7194845928
  C        10.1968348695        6.2051667409       17.0931388344
  H         0.4321008816        4.5495197439       27.7540475858
  H         0.5377338435        6.1618845998       27.3893274635
  C         2.1254091745        5.2748028249       28.5876380503
  C         4.8216941041       -0.6015612504       32.4777167692
  H         6.7153234781        3.4147315265       19.2680107072
  H         6.3679148150        2.8532438439       21.0007414729
  C         5.2487060757        2.0171210427       19.3646800128
  H        11.2931352428        1.6843847875       22.5216804011
  H        11.2250451484        3.0414802742       21.4862083516
  C        12.8676880266        1.8027525517       21.0807182020
  C        10.1471018845        7.6288022060       16.9506210392
  C        10.4480003359        5.5620571638       15.7997224636
  H         2.6324708189        4.2859142905       28.7672975648
  H         2.9613414468        5.9361194294       28.3736213148
  C         1.4283717159        5.7675533296       29.9128635277
  H         4.8084871472       -1.7436265949       32.3973709311
  C         4.4831911393       -0.1455775837       33.7227203376
  H         4.3975792205        2.6165776448       19.6992060197
  H         5.0238226932        1.0723894851       19.7627044396
  C         5.1233353154        1.9637190171       17.8202725856
  H        13.0682800549        0.6995482609       21.2682712947
  H        12.9439852024        1.9788585397       20.0126936374
  C        13.7706996558        2.6525501156       21.9483130298
  N         9.9086043732        8.5338083243       18.0479469376
  C        10.4325437817        8.2041172792       15.7700012233
  C        10.6526634334        6.1082947860       14.5621562615
  H        10.2804342698        4.4943708715       15.8387216192
  H         0.8415421457        6.6457571289       29.6832596377
  H         0.8213080432        4.9406872052       30.2584486527
  H         2.1373510450        5.9670412530       30.6788661191
  S         4.1802695020        1.4343418596       34.1489086904
  C         4.3416792655       -1.1220936517       34.8386129092
  H         5.1989202858        2.8960908067       17.3097420498
  H         5.9052294368        1.2963756261       17.4932537792
  C         3.7649076896        1.3218955934       17.4527633154
  H        13.1085667715        3.1906409032       22.6489599736
  H        14.4125144372        3.2504596514       21.2593854501
  C        14.7504952246        1.7690266638       22.7030923086
  S        10.0837320790        9.9997973753       17.4263127715
  N        10.4280223870        9.6470526483       15.9012392304
  C        10.6944153012        7.5705939133       14.5344943052
  H        10.8325329012        5.4189965008       13.7322956356
  C         3.9423309522        0.9010712544       35.8256898569
  N         4.0318464809       -0.4651439470       35.9793256439
  O         4.6493270857       -2.3350458154       34.7328864088
  H         2.9948637087        1.9063037792       16.8560122277
  H         3.2890314579        1.3550539823       18.4229302911
  C         4.0084018215       -0.0440622420       16.7562872352
  H        14.3688140715        1.3123300615       23.6099481089
  H        15.2190775908        0.9443782629       22.1314305688
  C        15.8621351646        2.6218387243       23.2181510343
  C        10.9677928708        8.2918033936       13.4279593797
  S         3.2622262774        1.8171824959       37.1857443585
  C         3.9166666722       -1.1780359615       37.2761947006
  H         4.4928104507        0.1439559267       15.7833434004
  H         4.7392569771       -0.7090942774       17.2323405257
  C         2.6376545095       -0.8039114777       16.5198385847
  H        15.5918280214        3.1735779413       24.0981283338
  H        16.3029064665        3.2509831833       22.4307228848
  C        17.0784851463        1.7582411319       23.5638155576
  H        10.6142924672        9.3500235388       13.4367565598
  C        11.3945896049        7.9078262199       12.2085887351
  H         3.2954298615       -0.6876692617       37.9361180311
  H         3.4309988682       -2.1602194797       37.0159140282
  C         5.2571792766       -1.3894033761       37.9664103849
  H         2.3133341353       -0.5453064355       15.5658627139
  H         1.9599775780       -0.3683217914       17.2104470543
  C         2.7587294953       -2.3205693969       16.7147173271
  H        17.4687161178        2.0172884476       24.5616297950
  H        16.7160506390        0.7154343448       23.5907580871
  C        18.2268364044        1.9114542325       22.5835884485
  S        12.1651148871        6.4428940508       11.7410801778
  C        11.4475822312        8.9717285719       11.1449450798
  H         5.8086594213       -0.3486761259       38.1696559680
  H         5.1907079629       -2.1014369395       38.8193856194
  H         5.8591857975       -1.9201599093       37.2404556157
  H         2.6117054967       -2.5335708381       17.7849796244
  H         3.5895608864       -2.6824348165       16.2516601517
  H         1.9589308571       -2.8550464339       16.2258952205
  H        19.1047819245        1.4886633808       23.0844999634
  H        18.5266860373        2.8877404319       22.2219983498
  H        18.0098822542        1.3693546562       21.6969205707
  C        12.4467262912        7.2225428265       10.2104470813
  N        12.1664746322        8.5169079585       10.1025455724
  O        11.1193032290       10.1737720742       11.3176776186
  S        12.9090295494        6.4577154130        8.7259908154
  C        12.2162227943        9.3752479086        8.8743924967
  H        12.4845120205       10.3937709531        9.1217335068
  H        12.8891822761        8.9464889138        8.0983783284
  C        10.8503584610        9.3049743504        8.2083982829
  H         9.9474624233        9.1467169806        8.8137254035
  H        10.6163376359       10.1107585366        7.5558095725
  H        10.9321622358        8.5295445116        7.4034362148
  H        -2.7793361531       15.3484729911       16.0045513909
  C        -2.5800980239       14.3113434050       16.1980220924
  H        -3.5231925468       13.8474645322       16.3052137767
  C        -1.6493607651       14.0123890125       17.4148353385
  C        -1.9386106455       13.6573682453       14.9477407994
  C        -2.3552033379       13.6667425110       18.7328621304
  H        -0.8841350734       13.3333605641       17.1400001471
  H        -1.1585226576       14.9738090983       17.7141760396
  H        -1.3316352262       12.7737421163       15.1611804810
  H        -2.6520860171       13.0712810885       14.3662876207
  H        -1.4100693672       14.3952385044       14.4372472850
  C        -1.3409721104       13.3970789910       19.8665017276
  H        -2.7994115942       12.7264998488       18.6538453078
  H        -3.1764217162       14.2817597639       19.0780566605
  C        -1.9295087371       13.7067903056       21.2504999785
  H        -0.9653454668       12.3773013509       19.8368251054
  H        -0.4858511708       14.0029846374       19.9160212777
  C        -1.2018668761       13.1406366189       22.4551650433
  H        -2.9489905240       13.4124554812       21.2454593022
  H        -2.0122479163       14.8202251494       21.4353541619
  C        -0.0149095053       13.9664245158       22.7996419651
  H        -2.0148363687       13.0689128909       23.2178406526
  H        -0.9536478329       12.1103718298       22.1512794917
  C         1.1074372394       13.1022762354       23.5348899438
  H         0.4095456862       14.5039683801       21.8956652114
  H        -0.3393138018       14.7338990698       23.5164600924
  C         1.4427354201       11.7842050428       22.7763760099
  C         0.5304045992       12.3389964530       24.7174155146
  C         2.4287925795       13.9845481105       23.7829613105
  C         1.0294258329       10.6479931906       23.4685770357
  C         2.0158970625       11.4903339660       21.5048729377
  C         0.4384264088       10.9955816550       24.6749783322
  C        -0.0237811001       12.9501774285       25.8225715712
  H         2.8249432944       14.3252045220       22.8526452646
  H         2.2881818412       14.9019247707       24.4757933959
  C         3.6002270302       13.1740738234       24.4179298656
  S         1.3671137748        9.1864378108       22.6010413820
  C         2.0378923233       10.1291361032       21.2364575602
  H         2.4145785778       12.2746643198       20.8567891185
  C        -0.0208312672       10.3531513866       25.7912479304
  H         0.0858379614       14.0149560077       25.8847564434
  C        -0.4376719441       12.3017412251       26.9398916783
  H         3.8662636928       12.4262527933       23.6419758676
  H         3.2462215764       12.6347456305       25.2807214127
  C         4.8407080729       14.1023555994       24.5546279379
  C         2.4311272480        9.5879492389       19.8743534505
  C        -0.4016393477       10.9760412317       26.9754961958
  H        -0.0224961411        9.2936631945       25.7852921892
  C        -0.9213029116       12.6487313361       28.1574612080
  H         5.6709940632       13.6557987814       25.0408702829
  H         4.5355906757       14.9560285678       25.1221113193
  C         5.5859913294       14.3455170682       23.2109444117
  C         2.3525740237        8.2019846403       19.5723657153
  C         2.9353293562       10.4537348718       18.8087757757
  C        -0.7750375502       10.1625305241       28.2213254285
  C        -1.0230981901       11.4707539580       28.9581281862
  S        -1.1651765212       14.1028612384       28.9935094380
  H         6.2763120260       15.1350554123       23.4742683518
  H         5.0129174144       14.6866395924       22.3050604264
  C         6.4259441656       13.0970013320       22.7274624804
  N         2.1036386240        7.1421701188       20.4974793854
  C         2.7266129852        7.6598092031       18.3565017961
  C         3.2731808641        9.8954255743       17.5328805798
  H         3.2000008401       11.4850155907       18.9129917942
  C         0.1990860666        9.2944482327       29.0353404412
  C        -2.0559948888        9.4213482647       27.9950674478
  C        -1.2552713387       11.8654811184       30.2924105248
  C        -1.4613990496       13.1955288222       30.4613755836
  H         7.3154313726       12.9504228059       23.4128595147
  H         5.6539037311       12.2720786294       22.6809048208
  C         7.0790269122       13.3733314600       21.3477905082
  S         2.0822765997        5.7034862543       19.6919162177
  N         2.5470202754        6.2708415931       18.2006403417
  C         3.2357963996        8.4175112259       17.3107949795
  H         3.8682286531       10.4296959137       16.7995039824
  H         0.4332364489        8.4215605517       28.4446323077
  H        -0.2339107265        8.9761160543       29.9559296038
  C         1.4663978443       10.0481291697       29.3896907420
  H        -1.8690796940        8.7930308857       27.1961781159
  H        -2.2060559405        8.7390283494       28.8284955303
  C        -3.3400604044       10.3171649401       27.6516614494
  H        -1.3238805056       11.1223518800       31.0849836323
  C        -1.8424455579       13.9214518529       31.7411254468
  H         8.0363309384       12.9048515691       21.2663871031
  H         7.2281410812       14.4363510991       21.2518714265
  C         6.1348011736       13.0825092571       20.2038304821
  C         3.5402483924        7.7932023264       16.0132457986
  H         1.7890772069       10.5560070211       28.4526255941
  H         1.3942072728       10.8432493979       30.1393176809
  C         2.6235680167        9.1141830874       29.9050594888
  H        -3.0088561106       10.9312112169       26.7924484807
  H        -3.6025332253       10.9875581299       28.4140696669
  C        -4.4538074340        9.3922607259       27.1981775600
  C        -1.9052073824       15.3048754920       32.0431691998
  C        -2.1992654627       13.0019085094       32.9116035542
  H         5.9208212099       11.9982091786       20.2069996271
  H         5.1891837663       13.6123318849       20.3594496980
  C         6.7902297884       13.5269108446       18.8987623777
  H         3.7627877038        6.7794873460       16.1566924495
  C         3.8917606764        8.2218600511       14.7519429534
  H         2.8349689908        8.3030074037       29.1798274348
  H         2.2671954038        8.5456607382       30.7761908233
  C         3.9942245875        9.8636717302       30.1518901684
  H        -4.0572308997        8.8383837202       26.3480431328
  H        -4.8014222278        8.6758885410       27.9431609743
  C        -5.7384806763       10.1045099719       26.8704971035
  N        -1.6324123675       16.2179727121       31.0691771250
  C        -2.3614755126       15.8499349313       33.2081267692
  C        -2.6214312515       13.5578579930       34.1561963395
  H        -2.2471777990       11.8935527762       32.8067285447
  H         6.5740747668       14.6297300438       18.7016484903
  H         7.8591454947       13.4260537070       18.9611441700
  H         6.5885349609       12.9118344352       18.0306552349
  S         4.0951795290        9.8345270031       14.2627175601
  C         4.1262592757        7.2612800071       13.6073020426
  H         4.1738361555       10.4617805162       29.2383699849
  H         3.9341308629       10.4827649707       31.0398863678
  C         5.1104918279        8.8117515195       30.2896949070
  H        -5.4613798494       11.0012423493       26.3166421617
  H        -6.3271850023       10.3035445885       27.7380466719
  C        -6.6324323857        9.4785324187       25.8210350351
  S        -1.7350901116       17.6989734365       31.7542521311
  N        -2.3425432251       17.2464225522       33.1753375671
  C        -2.8073475091       15.0863465193       34.3144883571
  H        -2.5850000391       12.8624574010       34.8820907293
  C         4.3877743255        9.1678165291       12.6536896342
  N         4.3465990020        7.8579928573       12.4658601613
  O         4.1138714482        6.0239976007       13.8041267798
  H         5.9888235153        9.4122853339       30.4803419791
  H         5.2331800727        8.3438590986       29.3223621126
  C         4.7720518831        7.7885394581       31.3479151725
  H        -6.1359332113        9.0549717670       24.9481168908
  H        -6.9517331677        8.4972690792       26.2058086861
  C        -7.8139398234       10.4160477598       25.5769455107
  C        -3.1046281947       15.6731588541       35.5787014966
  S         4.7128621065        9.9655618523       11.1547261631
  C         4.3337763006        7.0717420710       11.2226940443
  H         4.1633654022        8.2560732416       32.2005739549
  H         4.0465976964        7.1041749064       30.8015140539
  C         5.9033165429        6.9246462760       31.8746747758
  H        -7.5123269134       10.8165497800       24.5913475251
  H        -7.8600906835       11.3296054344       26.1187384439
  C        -9.1579002746        9.7000575725       25.5501281908
  H        -2.8959299682       16.7711083931       35.6184263909
  C        -3.6647751282       15.1790447335       36.7110169096
  H         4.4471539574        7.6419914751       10.3433935431
  H         5.1924245291        6.3843656456       11.1865416608
  C         3.0505674255        6.2926089342       10.9778800074
  H         5.8554388452        6.8983462627       32.9419226505
  H         6.7893824320        7.4687194269       31.5531867008
  C         5.9177236920        5.4554381546       31.3773759321
  H        -9.8139558710       10.1114009070       24.8334161784
  H        -9.0015556874        8.6835579968       25.1989671522
  C        -9.8226668532        9.6742754239       26.9738425170
  S        -4.2597170930       13.5922721434       36.8918977948
  C        -3.8354713600       16.0974949917       37.8642517694
  H         2.1663440137        6.8940787569       10.8561400337
  H         3.0834708873        5.7522468781       10.0036624943
  H         2.8417476451        5.5920175756       11.7326955744
  H         6.0540338066        5.3193553782       30.3187987628
  H         5.1807127146        4.7096470391       31.7147215864
  H         6.8102973370        5.0444919139       31.8896446600
  H       -10.8452827510        9.3080293607       26.8922625965
  H        -9.6851371544       10.5788218061       27.6175937452
  H        -9.3951369754        8.8620312316       27.6201572136
  C        -4.7654343348       14.1588318602       38.5214906567
  N        -4.5148676733       15.4689279863       38.7804126768
  O        -3.6414625352       17.3444002142       37.8394182359
  S        -5.5212141970       13.2196980869       39.7617011012
  C        -4.7407588554       16.0493430940       40.0770534289
  H        -4.8958719563       17.1231950421       39.8267625510
  H        -5.6436795534       15.7969524399       40.5802134513
  C        -3.5186448221       15.9727848523       41.0093434962
  H        -2.5811120623       16.3203938846       40.5232090217
  H        -3.7193184171       16.6993211938       41.7800935996
  H        -3.4958232779       14.9845272595       41.5060828091
