352
 i =     1200, time =     1200.000, E =        50.2191692514
  H        11.7531984499        7.4080853478       32.3110650761
  C        11.4277249954        6.3419991178       32.3259753353
  H        12.2249300462        5.6398165930       32.1840130262
  C        10.4727902782        6.0458778135       31.2913887144
  C        10.9543203838        5.8945209551       33.7393876052
  C        11.0888673626        5.9241407306       29.8916235594
  H         9.9247391985        5.1094363451       31.3871565534
  H         9.6594384202        6.8166273473       31.2230898780
  H         9.9431612606        5.2723663038       33.6876075303
  H        11.8195330442        5.3693759730       34.2758944329
  H        10.8866179984        6.8483490725       34.3777127199
  C         9.9807031643        5.9572451230       28.7927672969
  H        11.6495376521        4.9848254720       29.8233952869
  H        11.7621270574        6.7781152307       29.7874390813
  C        10.6205770084        5.4601205052       27.4806607040
  H         9.1196322839        5.1692587966       29.1708241447
  H         9.5339712017        6.9753180767       28.5682672036
  C         9.4536530798        5.0127297927       26.5492835837
  H        11.2060309598        4.6561032736       27.6896278920
  H        11.1555428677        6.1377101637       26.9387412035
  C         8.2993803389        5.9488350337       26.3738867467
  H         9.9013752744        4.6908649840       25.6385202149
  H         9.0186493348        3.9688633788       26.9269764922
  C         7.2366980235        5.3060697554       25.4256112080
  H         7.9088080582        6.1477842280       27.3582892772
  H         8.6949231342        6.9222601692       26.1325436441
  C         6.7496890214        4.0098568565       26.0937981563
  C         7.8367821038        4.6138749996       24.2149869950
  C         6.0310581073        6.2964130432       25.1741865639
  C         7.0544893677        2.9652865892       25.2688893530
  C         6.1177978888        3.6223114922       27.2025544033
  C         7.6695913385        3.2970315098       24.0621444126
  C         8.3256649057        5.3754660298       23.0924891750
  H         6.2372885546        7.0217362541       24.5272696101
  H         5.6667369619        6.7926115058       25.9722889690
  C         4.7679941277        5.5468204408       24.6810584047
  S         6.5971885125        1.4971389638       25.8878303874
  C         6.0126815620        2.2845361907       27.3461154517
  H         5.9973734045        4.4257181548       28.0211314821
  C         8.1194437511        2.6126545771       22.9234793153
  H         8.3645777704        6.5089046225       23.1749453590
  C         8.7592629933        4.6733252404       21.9786205944
  H         4.9427280926        5.1576956268       23.6952175869
  H         4.5159744448        4.7379375221       25.3291408773
  C         3.4389013737        6.3060368460       24.4903347016
  C         5.7207172989        1.4155003290       28.5750557546
  C         8.6835948345        3.3048606778       21.8478379610
  H         8.1632548590        1.4392482645       22.9167984969
  C         9.0501151336        5.0885677796       20.7402469451
  H         2.7108301743        5.8169593931       23.8528348756
  H         3.6979298389        7.2958618796       23.9936845691
  C         2.7901963673        6.5918980523       25.8293627152
  C         5.7125911419        0.0349774050       28.8072203398
  C         5.0998274488        2.2703915973       29.7026233635
  C         9.0970092014        2.6637078998       20.5539784774
  C         9.2970581032        4.0938167974       19.8858256543
  S         9.0717594782        6.6637525037       19.9456159720
  H         2.1045901591        7.5203570571       25.6899987201
  H         3.6130939343        6.7995232297       26.5588589068
  C         2.0339826769        5.3972816513       26.3188414514
  N         6.1680904853       -0.8488773479       27.8988716171
  C         5.3246472905       -0.4821102247       29.9932419202
  C         4.8388445535        1.6609075156       30.8754791378
  H         4.9435203642        3.2941533685       29.5443478955
  C         8.0986345998        1.8385273146       19.7563101054
  C        10.4043989975        1.8582602728       20.7677064437
  C         9.7008620121        4.4720300470       18.6260310909
  C         9.6450181761        5.9035001930       18.4871817834
  H         1.5170971874        5.0234807731       25.5065508090
  H         2.8350041299        4.6775880684       26.6772648342
  C         1.1311098186        5.6924034215       27.3742662889
  S         6.1537408835       -2.3496226503       28.4633523988
  N         5.4905706189       -1.8852224349       29.9162362721
  C         5.0037885853        0.2395547747       31.1328221417
  H         4.5742381114        2.3432343530       31.5984122489
  H         7.7850680937        0.9840806726       20.4385759583
  H         8.4830101917        1.4204432853       18.7786600620
  C         6.7568149973        2.6693610652       19.3918327756
  H        10.9385701502        1.5352181146       19.9200575668
  H        10.2120569616        0.9216095989       21.3499799285
  C        11.3745771046        2.6147237838       21.6798681868
  H        10.0000933255        3.8774218937       17.8035780653
  C         9.8530123745        6.6520122031       17.2307674746
  H         0.2691510154        4.9647799660       27.4121102852
  H         0.5340781739        6.6536741324       27.1315700623
  C         1.7883136170        5.8397639594       28.7980222346
  C         4.8515990514       -0.4562779967       32.3204030681
  H         6.9719837044        3.4379994631       18.7240662621
  H         6.2559926226        3.1247765878       20.2469723017
  C         5.7079609348        1.6445908539       18.8547090690
  H        10.7947928320        2.6283172642       22.6622501734
  H        11.6450814627        3.5521722013       21.1744744050
  C        12.7397997973        1.9962319854       21.6673780122
  C         9.9724769303        8.0916832878       17.0597872923
  C        10.0640610993        5.8863595136       16.0233752229
  H         2.4959638018        5.1063933212       29.0323991834
  H         2.3709596604        6.6991659548       28.9123837565
  C         0.9238091957        5.6882775450       30.0008461596
  H         5.0745303615       -1.5375384305       32.2221615852
  C         4.6154592275       -0.0478821540       33.6130886795
  H         5.6417410570        0.9363226422       19.6520440246
  H         6.1726575824        1.2250233707       18.0845598840
  C         4.5277143371        2.2827153541       18.0664137013
  H        12.7249283405        0.9248762923       21.9193188024
  H        13.1561596175        1.9472648826       20.6613774296
  C        13.6939714811        2.8230982719       22.5633267852
  N         9.9265769492        8.9974918074       18.1413863728
  C        10.3585597577        8.6252531120       15.8748270657
  C        10.4079482407        6.4598584028       14.8121738781
  H         9.8322227456        4.8026658722       15.9818844642
  H         1.7074835096        5.9645866626       30.8971287409
  H         0.2483706912        6.5595784022       29.7502169425
  H         0.3676502787        4.8358642476       29.9513220729
  S         4.4396531990        1.5624666387       34.1207819774
  C         4.6654743483       -1.0022840232       34.7094999820
  H         4.4033024285        3.2869593559       18.6127598706
  H         4.8236632436        2.3882372074       16.9276691045
  C         3.1704664087        1.3628392642       18.2238857387
  H        13.3202489222        2.8455051530       23.5974374347
  H        13.8362631957        3.9720339310       22.2339277261
  C        15.0587800131        2.1611513232       22.5893935491
  S        10.1594276521       10.4886031361       17.5358211506
  N        10.4161533224       10.0571839829       15.9947108972
  C        10.5236789841        7.9351081225       14.6671573568
  H        10.4097967495        5.7983372218       13.9007977349
  C         4.1896532159        0.9135416544       35.7142303102
  N         4.2234914639       -0.4152729347       35.8177403414
  O         4.9351585820       -2.2077598689       34.7083314193
  H         2.2381389029        2.0039466935       17.9590021455
  H         3.0234453327        0.9524522174       19.2741366554
  C         3.1278017956        0.0657110557       17.3260062256
  H        14.9095093446        1.0886444764       22.6517507150
  H        15.4514216935        2.4248032659       21.6610593246
  C        15.8032722954        2.7628646984       23.7418930053
  C        10.9419638367        8.5620769694       13.4573670625
  S         3.8393578790        1.9322710437       37.1378825574
  C         4.1050766774       -1.0880626085       37.1991250811
  H         2.8162076247        0.0893847309       16.3191988987
  H         4.0646840516       -0.3143777957       17.1720822851
  C         2.2421697114       -0.9865983178       17.9520110553
  H        15.2318576668        2.8359258959       24.6224454203
  H        15.9576569165        3.8184711996       23.6028962699
  C        17.2158667061        2.2316556391       23.9992693292
  H        11.3442924746        9.6507232645       13.6126289470
  C        11.5207050866        8.0775893331       12.2312857476
  H         3.4501200405       -0.4461407388       37.8078570540
  H         3.5231223981       -1.9825373719       36.9126716918
  C         5.5076432320       -1.3797391135       37.6894358611
  H         1.3086285816       -0.6441081312       18.4512307827
  H         2.7286691471       -1.4635525248       18.8464845911
  C         2.0298116345       -2.3706827509       17.1849876633
  H        17.6159884857        2.8884664029       24.6697808981
  H        17.1678106427        1.3790054979       24.4754543447
  C        18.0129771914        2.0859110465       22.7231960964
  S        11.8081988703        6.4047343489       11.8283484495
  C        11.8519095712        9.0247256174       11.1965141447
  H         6.3438283734       -1.1123179766       36.9967855014
  H         5.7619965756       -0.9054063435       38.6763341869
  H         5.5905193732       -2.5430848744       37.8273407994
  H         1.6404138140       -3.1950334898       17.8622249801
  H         3.0302744846       -2.6661781713       16.8611962878
  H         1.3756701219       -2.3186791050       16.3287805574
  H        17.9005862593        1.2507841281       22.2000466531
  H        19.1278908415        2.0470032171       22.9726095024
  H        18.0005767160        3.0548575751       22.1215344839
  C        12.2343083355        7.0330559874       10.2028941964
  N        12.3476893582        8.3756007264       10.1784278775
  O        11.7774338935       10.2417149624       11.3760441483
  S        12.7937038774        6.0240306042        8.8481776719
  C        12.6894025596        9.1315301763        8.9238311451
  H        13.2179913636       10.0825183061        9.1472382955
  H        13.4660402916        8.6043210186        8.5714698965
  C        11.5655392168        9.2389089224        8.1165727282
  H        10.6567115576        9.4984501534        8.6666356380
  H        11.6427803855       10.1196184848        7.4477504155
  H        11.3551271582        8.4849549565        7.2868234164
  H        -3.2793797180       14.8415787434       16.0044119668
  C        -3.0814854949       13.7560908252       16.0919215612
  H        -3.9509819316       13.1888727870       16.3133893707
  C        -2.1620141297       13.3413077428       17.2085606241
  C        -2.8684029800       13.0354503568       14.7714648126
  C        -2.7105572704       14.1231669372       18.5268502907
  H        -2.1440538511       12.2188116458       17.3325541689
  H        -1.1478001758       13.7558831637       17.0337701445
  H        -2.0891725946       13.5570764316       14.1910474289
  H        -2.4087525307       12.1572893140       14.9395402518
  H        -3.7815081456       12.6244957440       14.3085053800
  C        -1.7450189817       13.8495773093       19.5974508249
  H        -3.5997297454       13.6418702913       18.6193792629
  H        -2.6766091336       15.1354339735       18.0846492019
  C        -2.4084747003       13.5650968454       20.9505197528
  H        -1.0928053297       12.8998454645       19.3751256565
  H        -0.9533091992       14.7348743369       19.6709387876
  C        -1.4979591787       12.8875705004       22.0253043805
  H        -3.4758648194       13.0213257358       20.8828246875
  H        -2.5534626894       14.5168503860       21.4838184819
  C        -0.3744920338       13.7906114557       22.4256828804
  H        -2.1282516105       12.7608310149       22.8667989829
  H        -1.2639557237       11.8751100531       21.6394322896
  C         0.6923067330       13.1732919321       23.3763212899
  H         0.1152137770       14.0772679951       21.5063841097
  H        -0.8317584733       14.6881004687       22.7844543187
  C         1.2143599499       11.7242041068       22.7463349359
  C         0.3973172220       12.4538482622       24.6932169679
  C         2.0291122961       14.0754641737       23.3688681525
  C         1.0359576357       10.7113799716       23.5962355259
  C         1.6775328467       11.3064396972       21.4983243946
  C         0.5167651183       11.0769274289       24.8386853123
  C        -0.0625551330       13.1416745554       25.8432437180
  H         2.4247788946       14.4168273180       22.4186126001
  H         1.7572144341       14.9184056378       23.9635260787
  C         3.1124259287       13.3634444446       24.1094469161
  S         1.4842723161        9.1775142902       22.8589296550
  C         1.7584666658       10.0146520166       21.3407724498
  H         1.7799937825       12.0589582747       20.7109605891
  C         0.2825156275       10.4605412499       26.0032091299
  H        -0.1635233920       14.3124816762       25.6923789283
  C        -0.4190517315       12.4589201812       27.0074233534
  H         3.4061489400       12.4963443836       23.6100615371
  H         2.9156894796       12.9661147360       25.0702942727
  C         4.4197192195       14.2104086012       24.5062635441
  C         2.2967435713        9.3098911985       20.1715145726
  C        -0.2441294837       11.1351532928       27.1340596041
  H         0.4863383576        9.3494114696       26.0363718864
  C        -0.8466255422       12.7848305682       28.1924470260
  H         5.0855710113       13.5836883197       25.2257557186
  H         4.3456712636       14.9399611634       25.3299150544
  C         5.2491654274       14.6562457747       23.2551495101
  C         2.4455944774        7.8635404645       19.9696092750
  C         2.8442674372       10.1090590855       18.9896441083
  C        -0.6320859434       10.3721891428       28.3677022588
  C        -0.8966141373       11.7332548941       29.0573291878
  S        -1.1465130780       14.3287999561       28.9683602348
  H         5.7958836243       15.5989538293       23.4255052342
  H         4.4495876371       14.7962288345       22.4665306220
  C         6.1791356546       13.6429363698       22.7658550120
  N         2.1071739930        6.9792894674       20.9618041063
  C         2.6664544515        7.2924670879       18.7581879020
  C         3.2281604064        9.5119375844       17.8279749555
  H         2.9032155769       11.1157459256       18.9718159825
  C         0.6897803374        9.6470443546       28.9720132994
  C        -1.9564296588        9.4979549157       28.2596620342
  C        -1.1758551845       12.1207163477       30.3413269591
  C        -1.4197114063       13.5004966642       30.4346000419
  H         6.8772990826       13.6023253777       23.5282142344
  H         5.7316826336       12.6945452468       22.7003171584
  C         6.9621401619       14.0831791292       21.4786986385
  S         2.1346268746        5.4284689059       20.3221308104
  N         2.3448144221        5.9242105673       18.7722784652
  C         3.1344861334        8.0448999197       17.6456903925
  H         3.5646757053       10.1576255396       17.1446190204
  H         1.0132769375        8.8127237744       28.2657976557
  H         0.4365538152        9.1120970611       29.8842526823
  C         1.9584397990       10.4852951335       29.3131883848
  H        -1.8547095876        8.6055582667       27.6873545287
  H        -2.2147875749        9.1426319739       29.2352404380
  C        -3.0683326240       10.3271094692       27.7079046877
  H        -1.1906051845       11.3597425796       31.1171654935
  C        -1.8200788336       14.2537923249       31.6785720489
  H         7.8803759584       13.6080663597       21.3582592546
  H         6.9470176566       15.2084546492       21.5037904913
  C         6.0136095405       13.6743767187       20.2746756011
  C         3.3810846850        7.3277757772       16.4113993562
  H         2.2423738220       10.8312788826       28.2816718171
  H         1.8046221067       11.4017119635       29.9006809911
  C         3.0252648485        9.6038456052       29.9656834440
  H        -2.7356437427       10.8402343358       26.8398027433
  H        -3.4901070656       10.9837820768       28.4116395415
  C        -4.2317324496        9.4248027711       27.3100727193
  C        -1.8853185037       15.6563618155       31.8524339404
  C        -2.0317393432       13.4178329397       32.8994025209
  H         5.5021885913       12.7272298461       20.5300101475
  H         5.2167989438       14.5264861718       20.0951111820
  C         6.7836915130       13.5898606225       18.9170508863
  H         3.1758408403        6.2286905594       16.5283828832
  C         3.5291786461        7.7277578518       15.0758165554
  H         3.1395814038        8.6802349298       29.5045017546
  H         2.6014915682        9.1842904665       30.8519532548
  C         4.3496491046       10.3158545220       30.2644181908
  H        -4.0366953011        8.6170775766       26.5601351124
  H        -4.6420220378        9.0410421873       28.2376397565
  C        -5.3351448992       10.2291620986       26.4762601771
  N        -1.8006276118       16.5671975456       30.8397875149
  C        -2.1271175267       16.2591002203       33.1220377537
  C        -2.3226735594       14.0043023302       34.1637376721
  H        -1.9277439220       12.3613168821       32.7012300628
  H         6.1594289056       13.4231206080       18.0727391011
  H         7.2333400111       14.6050182205       18.7646724125
  H         7.5904341581       12.8147558674       18.8125846476
  S         3.6482906438        9.3080854741       14.5610832765
  C         3.6118153453        6.7104455075       14.0389099107
  H         4.3867732542       11.2345310428       29.6102407935
  H         4.2854494439       10.6089024769       31.2664659800
  C         5.6254755038        9.5380039548       29.9285155903
  H        -4.7059104752       10.5243844919       25.6638877959
  H        -5.6461886767       11.2125555848       26.9891316935
  C        -6.4213495293        9.5087906509       25.9724632467
  S        -2.0629796848       18.0475327161       31.4561145100
  N        -2.0851601132       17.6654029408       33.0923795430
  C        -2.3794497695       15.4648665259       34.3112090507
  H        -2.3606735223       13.4431795664       35.1256138790
  C         4.0155442728        8.6729921318       13.0031788257
  N         4.0455434977        7.3516044832       12.9204327635
  O         3.4352984206        5.5175627830       14.1775563351
  H         6.5698332024       10.0976531011       29.9320790867
  H         5.3939964457        8.9911928261       28.9214660439
  C         5.8723041938        8.5081908634       31.0561364395
  H        -6.1178797538        9.2975609438       25.0331471640
  H        -6.7514899494        8.7157725088       26.6699539513
  C        -7.6618867326       10.4160155238       25.8419166787
  C        -2.7575219521       16.2937340617       35.4622513756
  S         4.3905834198        9.6079184941       11.6055077539
  C         4.1130141049        6.6602846795       11.6138273804
  H         6.5683061392        8.7950506789       31.7229413357
  H         4.9940918942        8.5431421494       31.7584626103
  C         6.0530311140        7.1310396688       30.3790334602
  H        -7.3958622298       11.3906054566       25.3132593412
  H        -7.9417015381       10.7217522284       26.9236655405
  C        -8.7974062678        9.7085599879       25.1031635594
  H        -2.4792969324       17.3650884642       35.5831805374
  C        -3.1906249873       15.8227964099       36.6512863318
  H         4.7671520866        7.1684611840       10.9245217149
  H         4.4344940815        5.5775376077       11.7430206922
  C         2.7266338688        6.5102814838       10.9580181460
  H         6.9128326498        7.3451972107       29.6752897162
  H         5.1774967729        6.7925541535       29.8474988324
  C         6.3972406989        6.0224124032       31.3746340418
  H        -9.2970500046       10.3228718406       24.3026502318
  H        -8.4154901739        8.8583178618       24.5883659407
  C        -9.8054928969        9.1503429710       26.2626742673
  S        -3.8483354940       14.3292671802       37.0602486507
  C        -3.0639761880       16.7794954536       37.8119956614
  H         2.3523776299        7.4283123535       10.4580063488
  H         2.5112917249        5.7079358197       10.2493160922
  H         1.8775216382        6.3777627454       11.6992829532
  H         6.4585258608        4.9642950264       30.9901579787
  H         5.7033314389        6.0489698925       32.2473600083
  H         7.3201245006        6.1276316845       31.8662207749
  H       -10.2963728418       10.0087473232       26.7681409331
  H        -9.1004268787        8.5962388803       26.8860388210
  H       -10.5741705552        8.5517974470       25.8877125609
  C        -4.0113903204       14.9882538317       38.6592153992
  N        -3.6740508706       16.2255551567       38.7927433848
  O        -2.6745142398       17.9303709802       37.7231914460
  S        -4.6984117751       14.1695357383       40.0753027911
  C        -3.7304131297       16.9919503754       40.0880739495
  H        -4.0053824253       18.0291030216       39.8426162936
  H        -4.4016865127       16.5854541544       40.8525602009
  C        -2.4697454181       16.9308963790       40.8575816998
  H        -1.5375983566       17.2157884752       40.2763719326
  H        -2.5012625378       17.5792447889       41.7807116977
  H        -2.1078803778       15.8633909822       41.0921679691
