352
 i =    20300, time =    20300.000, E =        25.0328221445
  H        12.2677295485        7.3263782665       32.0757351625
  C        11.9738670927        6.2550847865       31.9933822090
  H        12.9542267028        5.7698616559       31.7065456062
  C        10.9117705870        5.9656541065       30.9594135956
  C        11.4624768830        5.6724409786       33.3014312313
  C        11.4261322358        5.8496123267       29.5566936425
  H        10.5101209182        4.9827559641       31.1603965219
  H        10.0715263676        6.7240907166       31.0971606809
  H        10.7344209909        6.2813252250       33.7745462216
  H        11.2917743462        4.6349851153       33.0704768039
  H        12.2955400404        5.5444469459       34.0625391822
  C        10.2792141629        5.7341655422       28.5018786993
  H        12.1969257900        5.0769899659       29.4807269878
  H        11.9736571199        6.8063799057       29.4035499972
  C        10.7336117241        5.7172006000       27.0288977720
  H         9.7912455948        4.8439685092       28.7290661033
  H         9.4320135292        6.4505821801       28.6908624149
  C         9.7523555818        5.0053204359       26.1471903568
  H        11.6577069733        5.1639287152       27.0430065157
  H        10.8569140444        6.7318411321       26.5485365710
  C         8.4844122333        5.8852751330       25.9180029714
  H        10.2695942679        4.8227746442       25.2707506640
  H         9.5333476085        3.9482736923       26.4209005426
  C         7.3448683282        5.1977752945       25.1709398829
  H         8.0970137000        6.1307869600       26.8946835344
  H         8.7547203495        6.8796574451       25.5476093958
  C         7.0761020823        3.8497213194       25.8889338274
  C         7.7598168569        4.5065336712       23.9830799887
  C         6.1808532693        6.1052739449       24.9189410368
  C         7.4317960107        2.7636701455       25.1347677784
  C         6.4614831650        3.4627547457       27.0595522710
  C         7.8747745920        3.1661009608       23.8811150350
  C         8.2523183090        5.1456237125       22.8064617339
  H         6.4322989558        6.7073012434       23.9700556546
  H         6.0883485405        6.7569292901       25.7838877469
  C         4.8774384244        5.3565913690       24.7255368425
  S         7.1521919584        1.2212392088       25.8775425366
  C         6.5227978846        2.1166180067       27.2969236234
  H         6.1251732616        4.2808186002       27.7403873835
  C         8.1853179617        2.5999417405       22.6948851492
  H         8.3208045297        6.1941572002       22.9017990366
  C         8.6501455380        4.6000266598       21.6353575683
  H         5.0054338932        4.6752201042       23.8318226411
  H         4.6479366000        4.6890010621       25.5425577436
  C         3.6525835780        6.3129563200       24.4419486292
  C         6.1154026494        1.4187219495       28.5533381577
  C         8.5034026024        3.2769685884       21.5153285521
  H         7.9918116790        1.6099208544       22.7926332198
  C         9.0468394014        5.0548052852       20.4045702705
  H         2.9269900043        5.9569418913       23.6879198868
  H         4.0870966450        7.2669997347       24.1304371934
  C         2.7639816774        6.4602354275       25.6978375568
  C         6.1149167527        0.0618142122       28.8689478917
  C         5.5831302316        2.3632083754       29.6220262495
  C         8.7983826095        2.6389259439       20.2907095278
  C         9.1063023671        3.9976057237       19.5295344556
  S         9.2931874387        6.5350031267       19.6077871250
  H         2.2298354894        7.4439293422       25.8795454896
  H         3.5620036517        6.5584788007       26.5221706602
  C         1.9191138400        5.2915171767       26.1427457140
  N         6.5082214131       -0.9688177789       28.0315883500
  C         5.7654706299       -0.4350762839       30.1028115453
  C         5.1737313687        1.8362711917       30.8389011126
  H         5.4208905000        3.4261123694       29.4264546244
  C         7.4670381086        1.9479191734       19.9330680276
  C        10.0844132042        1.7977239554       20.5223476636
  C         9.5441074021        4.3914320956       18.2630954927
  C         9.6050914388        5.7537094336       18.1119893664
  H         1.1351035240        5.1678151723       25.4101836889
  H         2.4152433590        4.3495507397       26.3022187790
  C         1.2760115213        5.5000153068       27.4986939696
  S         6.3000062995       -2.4282754825       28.7035447727
  N         5.7249932016       -1.8323032958       30.1407075786
  C         5.3295581136        0.4059063108       31.1534711152
  H         4.9125851332        2.5939395322       31.5716491621
  H         7.0726817991        1.4342396136       20.7815479169
  H         7.7509155769        1.2096912519       19.1768266598
  C         6.3366878241        2.8188984736       19.3499004855
  H        10.2010144372        1.1666689672       19.6420754639
  H         9.9129622631        1.1267927551       21.3240080574
  C        11.4006026981        2.5118616121       20.7736913966
  H         9.7379144642        3.6728926161       17.4689241264
  C         9.8472273909        6.4982933709       16.8187182228
  H         0.6618887043        4.6383459356       27.6124149739
  H         0.5577032845        6.3605598316       27.5432150958
  C         2.2084574414        5.6199031698       28.6731087565
  C         5.1035409335       -0.1922065413       32.4642621056
  H         6.6977571470        3.2437265382       18.3824312892
  H         6.0267881984        3.5932286571       20.0782041133
  C         5.1239284187        1.9733863990       18.9248444420
  H        11.2239978524        3.2192375380       21.6246534288
  H        11.5543753802        3.1878626502       19.9216624815
  C        12.5475703535        1.5804249835       21.1436298568
  C        10.1049264838        7.8764593833       16.7088226659
  C         9.9867974167        5.7439107183       15.4959026732
  H         2.7788383202        4.7056120417       28.7793591175
  H         2.8756287899        6.3987528867       28.4807186113
  C         1.6832356355        5.8852497230       30.0827405247
  H         5.4438202449       -1.2048112510       32.4584272539
  C         4.7523196027        0.2874336651       33.6817594477
  H         4.5555334404        1.9433892795       19.8722319245
  H         5.4585665187        1.0133974329       18.6404118477
  C         4.3387930880        2.5777972331       17.7206489662
  H        12.4051468771        1.2776177546       22.2029337250
  H        12.5727645412        0.7439782695       20.4115245232
  C        13.8984283002        2.3109317357       21.0408269258
  N         9.9749682632        8.7796513899       17.7758736647
  C        10.4332704302        8.5338146943       15.5630611361
  C        10.4769930495        6.4071449213       14.3427657875
  H         9.8473628810        4.7208781541       15.5416723518
  H         1.2117058963        6.8155735938       30.1983819448
  H         0.7301217673        5.2832559445       30.3547988742
  H         2.4545578378        5.7355223261       30.8179260800
  S         4.2578835693        1.8969737542       34.1348951272
  C         4.6853694213       -0.6682475089       34.7568126521
  H         4.0533171096        3.6931575254       17.8566479791
  H         4.9622125398        2.6110574667       16.8411075280
  C         2.9880455399        1.8531954920       17.5309957185
  H        13.8115749579        3.2986041687       20.5419709602
  H        14.6193947742        1.6335457895       20.5619100530
  C        14.4704851943        2.5881872300       22.4030544805
  S        10.1892547795       10.3035045830       17.1963968581
  N        10.5230219925        9.9187192921       15.6542364848
  C        10.6459066090        7.8970340756       14.3238963523
  H        10.5081692577        5.8180068454       13.4935688858
  C         4.1782245881        1.2831008423       35.8285616514
  N         4.2540702678       -0.0548302127       35.8687586724
  O         4.9626122187       -1.8402104382       34.7262108468
  H         2.2826129546        2.4812452920       16.9750099547
  H         2.4303320849        1.8930260835       18.4815294451
  C         3.0756645319        0.4788602474       17.0111753689
  H        15.2598195758        3.3591904080       22.3354455881
  H        13.7162197858        2.8834538950       23.1593434458
  C        15.2959392207        1.4372321941       23.0777424506
  C        10.8165321650        8.6782165548       13.1494807901
  S         3.8118735442        2.2516617827       37.3396763139
  C         4.1823468359       -0.7487866143       37.1237224534
  H         2.6797401822        0.3636066860       16.0208534998
  H         4.1423979546        0.2541294200       16.8789457597
  C         2.4501631555       -0.5637767974       17.9520948557
  H        15.4818897691        0.5927090467       22.4547686178
  H        14.7600749663        1.0017224597       23.9362481812
  C        16.7113068213        1.9509066960       23.5004481291
  H        10.4509209415        9.6406609745       13.2910740637
  C        11.4158968597        8.4421440572       11.9431426134
  H         3.6380273136       -0.2192290430       37.8951462658
  H         3.6070573523       -1.6543820757       36.9931482802
  C         5.5797928044       -1.1189701057       37.6177074688
  H         1.3678658225       -0.4572769939       18.0478082238
  H         2.7262761068       -0.4471863135       18.9509418514
  C         2.5971946525       -1.9698569538       17.4184804825
  H        16.5515971010        2.9438415900       23.9345268047
  H        17.0093229688        1.2314076521       24.2711875864
  C        17.8600161661        1.9118196628       22.4835918669
  S        12.0105152385        6.9664390208       11.3386121729
  C        11.5684682040        9.6366973695       11.0763455939
  H         5.4982673722       -2.1506119275       38.1008641927
  H         6.2712173554       -1.1436902734       36.8162148075
  H         6.0082052615       -0.2864938284       38.2823888626
  H         2.3200082193       -2.1354868134       16.3944278977
  H         2.1383004987       -2.6922411544       18.0598559151
  H         3.6871214718       -2.1443256534       17.5222178899
  H        18.7429475438        1.8958802169       23.1081185538
  H        17.9476829143        2.8149812398       21.8931522297
  H        17.9343849698        1.0082514710       21.8687170967
  C        12.2558998401        7.8759326697        9.8286835519
  N        11.9790471884        9.2185349891        9.8679484872
  O        11.1907185198       10.8037291336       11.3194313655
  S        12.5777637970        7.1496643510        8.3583498440
  C        12.0230619605       10.1083778428        8.7401857017
  H        11.9404652800       11.1539799449        9.0236776098
  H        12.9965775796        9.9798900560        8.1517679246
  C        10.8602496125        9.8992044928        7.8907060847
  H        11.0761378622        9.9094663485        6.8257682187
  H        10.2879751030        9.0039048484        8.0906863849
  H        10.2255807321       10.8175368264        7.9202986469
  H        -3.9037354987       14.6706112555       17.6504609023
  C        -3.3699375970       13.8081703469       17.1723706505
  H        -4.0769065547       13.0384428977       17.0023802336
  C        -2.2184718688       13.4582327738       18.0596617285
  C        -2.8118058486       14.0551595216       15.7335387690
  C        -2.6292557375       13.3647769699       19.4573132840
  H        -1.7741597936       12.5763636831       17.6682694726
  H        -1.5225712298       14.2733585845       18.0305123202
  H        -2.0091031721       13.3565969193       15.4484426293
  H        -3.6221476306       13.7209132899       15.0710619192
  H        -2.4285531167       15.0859628063       15.5629522629
  C        -1.5053036099       13.6468132070       20.3497041905
  H        -3.0616472279       12.3524891049       19.5710277979
  H        -3.4999933411       14.0759726706       19.7045136112
  C        -1.9235860231       13.6966835745       21.8417952557
  H        -0.7583513191       12.8641424188       20.0681272521
  H        -1.2257277855       14.6974301908       20.0831055252
  C        -1.1010601714       12.8938369209       22.7711142500
  H        -2.9179827493       13.1986198038       21.8238218970
  H        -2.0525444383       14.7024307619       22.2829620511
  C         0.1557640708       13.8010799977       23.1004114065
  H        -1.5693896723       12.7489176555       23.7139947488
  H        -0.8332233860       11.8965962599       22.3129021444
  C         1.2759836477       13.0334050434       23.7826489576
  H         0.4889770361       14.4981622499       22.3092729771
  H        -0.0666967939       14.4841296005       23.9648293551
  C         1.6543803021       11.6923651523       23.0725085235
  C         0.8189553586       12.2955139313       25.0110956740
  C         2.5667913226       13.8926657157       23.8595896846
  C         1.2126912759       10.6430811910       23.7846170453
  C         2.1263545081       11.3523641164       21.7914529902
  C         0.7654362220       10.9665221482       25.0300600908
  C         0.2956948805       12.8952138645       26.1350029770
  H         2.8042772194       14.3075916984       22.8623092452
  H         2.2825057879       14.7562832452       24.5154421774
  C         3.7386171646       13.1377561102       24.6015125588
  S         1.4573910470        9.1203466945       22.9462584633
  C         2.1142881661        9.9867538945       21.5436265138
  H         2.3027689672       12.1649386053       21.1316507926
  C         0.3108962098       10.3133676376       26.2047374557
  H         0.2912249650       13.9791605186       26.0483157542
  C        -0.1048704301       12.3527874006       27.2991014705
  H         4.1692898308       12.3240294627       23.9133878931
  H         3.3601627525       12.6155930198       25.4578773412
  C         4.9687124988       14.0736759953       24.8923997428
  C         2.4067770133        9.2783696463       20.2624469256
  C        -0.1325320645       10.9952991866       27.3797183842
  H         0.3202475673        9.1720755838       26.2626074219
  C        -0.5874328825       12.7575548234       28.5490303505
  H         5.5810569397       13.6071121077       25.5924466638
  H         4.6719817109       14.9114770354       25.4554613878
  C         5.8113435991       14.5290722362       23.7085020358
  C         2.3283873224        7.8951400630       20.0002927834
  C         2.9587290640       10.0679892943       19.0937514102
  C        -0.4400775401       10.2993671529       28.6516353308
  C        -0.8404149821       11.6458012038       29.3879887894
  S        -0.9073090886       14.1755584908       29.4449689630
  H         6.6423258363       15.0048562015       24.1822282794
  H         5.2380251258       15.1656529782       23.1636566625
  C         6.5054249651       13.4592979053       22.8508384003
  N         1.9532476088        6.9696041442       21.0234775441
  C         2.6216980419        7.2484791098       18.8105895676
  C         3.2076918442        9.4520081677       17.9021877586
  H         3.2418319247       11.1296871531       19.1109125949
  C         0.6778620612        9.5783713911       29.4459430781
  C        -1.7976264094        9.5270485696       28.4213935818
  C        -1.3805754483       11.9925962190       30.6974521798
  C        -1.4883521490       13.3519295447       30.8695468746
  H         7.4725180286       13.1552841308       23.3551599714
  H         5.9575523482       12.5456127873       22.9230970827
  C         6.8049810421       13.9076820852       21.4526214544
  S         2.2099265778        5.4848363913       20.5611967691
  N         2.6390154578        5.8593358858       18.9985935950
  C         3.0470166481        7.9419886746       17.6686885620
  H         3.7138559611       10.0786840846       17.1521591693
  H         0.9303421071        8.7700276496       28.8259920829
  H         0.2121061431        9.1156371054       30.3380019676
  C         1.7782790177       10.5126303375       29.8731431946
  H        -1.7424984591        8.8076584681       27.6161204563
  H        -2.0912556710        9.0286753316       29.3602560957
  C        -2.9966540849       10.4524798029       28.0400730370
  H        -1.5364460997       11.2562648847       31.4427534974
  C        -1.8398733501       14.1223494890       32.1361301422
  H         7.7119528837       13.3074752739       21.2428938061
  H         7.0352242636       14.9893030517       21.4220387069
  C         5.6639177723       13.5078224700       20.5115764308
  C         3.2763635632        7.2221276838       16.4622492952
  H         2.2416339779       11.0261379392       29.0373763355
  H         1.4741657108       11.2961851559       30.6067221832
  C         2.9264501797        9.6349860142       30.4052843819
  H        -2.8391322217       10.7549040747       27.0435860959
  H        -3.1691732597       11.3763610410       28.6959630908
  C        -4.2801068198        9.7084847948       27.9549135159
  C        -1.9379972966       15.5447121105       32.2585789765
  C        -2.1015977877       13.4362912327       33.3919420288
  H         5.2870300627       12.4873924440       20.6513259271
  H         4.7046398608       14.1303961317       20.6863315248
  C         6.0912872386       13.7552925036       19.0940741534
  H         3.1091935703        6.1452679824       16.4696320818
  C         3.6179101146        7.5828694121       15.1552810249
  H         3.1982331660        8.9470817882       29.5848534994
  H         2.6131117966        8.9165136578       31.1317893919
  C         4.0419321984       10.4392260233       31.0780065683
  H        -4.2613939931        8.8562304496       27.2544451765
  H        -4.5053905795        9.2597581710       28.9285232081
  C        -5.4888530207       10.6286340276       27.5041761998
  N        -1.7265397397       16.4249294568       31.2071995272
  C        -2.3262648811       16.1572211178       33.4603524393
  C        -2.4520916541       14.0447708412       34.5770989103
  H        -2.0138404864       12.3965148567       33.3682586821
  H         7.1607945291       14.0322338193       18.9919655856
  H         5.9546740182       12.8966160278       18.4111199279
  H         5.5012960351       14.5813905781       18.5984494845
  S         3.8932846856        9.1325194367       14.5114983209
  C         3.6529188079        6.5016577475       14.1233490588
  H         4.1180379532       11.4375453628       30.6747502304
  H         3.8729082271       10.4430024561       32.1389452707
  C         5.4024974034        9.7373047639       31.0004179589
  H        -5.0656618210       11.2482976675       26.6620013758
  H        -5.8358465468       11.2521184500       28.3642768828
  C        -6.5535398819        9.8171628975       26.9157089566
  S        -1.8770559913       17.9603678068       31.8172748373
  N        -2.2967757172       17.5271775248       33.2641298628
  C        -2.6125566685       15.5186124654       34.6253247102
  H        -2.4651491164       13.4870931688       35.4880686593
  C         4.0981355781        8.3314775873       12.9533632356
  N         3.9926463012        6.9654992552       12.9502581464
  O         3.4079383385        5.3040211712       14.3730746111
  H         6.0503833454       10.4534073478       31.5067380980
  H         5.8619038233        9.7121010116       30.0387673594
  C         5.4258388326        8.3771121095       31.6305313854
  H        -6.2773354245        9.8298374141       25.7951374758
  H        -6.4622739115        8.7807211664       27.2223338703
  C        -7.9013132123       10.3869889471       27.2276876176
  C        -2.8987519693       16.2917833160       35.7753572388
  S         4.4411224864        9.0275766325       11.3494104677
  C         4.2348516761        6.1158192526       11.8218641019
  H         5.6485955454        8.5533206162       32.7103392255
  H         4.4766824106        7.8798342822       31.4869022998
  C         6.4751371611        7.5008981869       30.9941502532
  H        -7.8345326155       11.4757146609       27.0642142457
  H        -8.1897225341       10.3994375000       28.3369761659
  C        -9.0194575651        9.7276807865       26.5395716811
  H        -2.7986013048       17.3674159697       35.6920309444
  C        -3.3606369142       15.9414014338       36.9893783388
  H         5.2189362752        6.4071643403       11.2749938227
  H         4.4193813904        5.0628043156       12.1259593756
  C         2.9687772682        6.0787703426       10.8399972108
  H         6.5466758938        6.6402873803       31.6648411793
  H         7.4456502215        8.0112746847       30.9984799689
  C         5.9427772072        6.9921362850       29.6372900608
  H        -8.9798621870        8.5914503871       26.6549871604
  H        -9.9541960615       10.1346586585       26.8997225650
  C        -8.8171131637        9.9753740996       25.0378853151
  S        -3.8389063302       14.3871221267       37.5198986595
  C        -3.4200635759       16.9965864257       38.0703180410
  H         2.0923889061        6.5488021094       11.2724396582
  H         3.2417982165        6.6158891027        9.9125289879
  H         2.6823180710        5.0641164034       10.6135847303
  H         6.7631046803        6.5413464210       29.1448117527
  H         5.7209432661        7.7932894044       28.9515173608
  H         5.1625548774        6.2931133688       29.7062291685
  H        -8.4924772407        9.0909666488       24.5126664144
  H        -7.9808406136       10.6566138018       24.8686338731
  H        -9.8338460271       10.2008889679       24.6645039046
  C        -4.3715254506       15.1470925342       39.0334675470
  N        -4.0075783996       16.5082098579       39.1762132182
  O        -2.8460382078       18.1007839562       38.0539919645
  S        -5.2291226818       14.5381899084       40.4116473068
  C        -4.0266275019       17.2850529375       40.4270937357
  H        -4.1263603236       18.3616808003       40.2733328953
  H        -4.8838848199       16.8649395542       40.9638547820
  C        -2.7459090371       17.1443093374       41.3030209218
  H        -2.9583497043       16.8263493161       42.3047050007
  H        -2.1285457856       16.3446718125       40.9129282972
  H        -2.1258356018       17.9969500019       41.3021097699
