352
 i =    68200, time =    68200.000, E =        25.2251080433
  H        10.9990841098        4.7968016693       31.5731151107
  C        10.6963140495        5.8075839843       31.8662826395
  H         9.5997282591        5.7281972609       31.7843444670
  C        11.1350263502        6.8098096577       30.8178291686
  C        11.1290541206        6.0499380049       33.3087797545
  C        12.1265540560        6.1692230046       29.8694518849
  H        10.3130004912        7.1945650446       30.3173684726
  H        11.5425186900        7.6606017930       31.3162523712
  H        10.4867251314        5.4346772251       33.9623123905
  H        12.1582468326        5.6500432034       33.4526689770
  H        11.1526357124        7.0963420557       33.6386021054
  C        11.4891883448        5.3215962852       28.7723382921
  H        12.7266659327        5.4392544355       30.4610177082
  H        12.8490601565        6.9430064306       29.4511943182
  C        10.6412861317        5.9926149744       27.6866847569
  H        12.3161895775        4.7174852541       28.2866832489
  H        10.8510912657        4.5792007189       29.1521102635
  C         9.7937269688        5.1602775164       26.7293033146
  H        11.3290469514        6.5937210983       27.1022375720
  H         9.9408059011        6.6967060226       28.1423091953
  C         8.6122834854        5.8705081619       26.1726182957
  H        10.3820788860        4.8128437736       25.9864589232
  H         9.4557816040        4.2326220913       27.2018405714
  C         7.5044600142        5.0448765019       25.4389436757
  H         8.1442500602        6.4621061794       27.0136402159
  H         8.9961068995        6.6340171049       25.5391634878
  C         7.1182566731        3.6576804811       26.1501535813
  C         7.8776701815        4.2607245951       24.2452149693
  C         6.2978939658        5.9263624599       25.0840649007
  C         7.1309997507        2.5839491918       25.2939133326
  C         6.6760392606        3.2544686913       27.4224037793
  C         7.6419304959        2.9572893603       24.0630158120
  C         8.2538010812        4.9336616248       23.1143654577
  H         5.8953547024        5.5470990917       24.1302313151
  H         6.4728776609        6.8597813646       24.6869927973
  C         5.1908264835        6.0611621912       26.2083750195
  S         6.5847470459        1.0523302745       25.9682595574
  C         6.3439772171        1.9124254248       27.5099755806
  H         6.7352876963        3.8142566307       28.2660137624
  C         7.8414025148        2.4111859977       22.8421502758
  H         8.5283521601        5.9475124276       23.3107124357
  C         8.4187059281        4.4350869157       21.8810754124
  H         4.9787040593        5.0534093145       26.6986358525
  H         5.5037543800        6.8637650328       26.9589070060
  C         3.7777029597        6.4625396266       25.6533984701
  C         5.9575200689        1.2179229783       28.8407836655
  C         8.2741973387        3.1032519734       21.6965144474
  H         7.5243742832        1.3157639690       22.7509555893
  C         8.8135328245        4.8620604664       20.6306081898
  H         3.5211860430        5.7296075191       24.8802241747
  H         3.7997975713        7.4285925469       25.1066405044
  C         2.6237370417        6.4590907234       26.6834719212
  C         6.2010206567       -0.1825201111       29.0799662683
  C         5.5012375825        2.1051851858       29.9302177107
  C         8.6102531949        2.4437802042       20.3807161208
  C         8.8904772357        3.8360080364       19.7331347410
  S         9.2635396063        6.4020568050       19.8737106141
  H         1.7494959674        6.8307570403       26.2222312482
  H         3.0226014298        6.9625909045       27.6158368262
  C         2.1713556315        5.0617402060       27.1466088595
  N         6.5668689127       -1.0756482425       28.0723626819
  C         6.0851143210       -0.7878416818       30.2709535808
  C         5.3623139419        1.4707760278       31.1451039738
  H         5.3021552927        3.1402832239       29.7129551795
  C         7.3895522549        1.7181010214       19.6259069406
  C         9.8639329062        1.5402738792       20.5779962812
  C         9.3104034667        4.3171342468       18.4807632287
  C         9.6844204938        5.5818328921       18.4656199796
  H         1.5779372961        4.5833452711       26.3718122205
  H         3.1704514031        4.5400355582       27.1225204370
  C         1.7655567586        5.0831104295       28.5865035284
  S         6.7506870803       -2.5296678334       28.6759567778
  N         6.3009017480       -2.1824464635       30.2464153483
  C         5.6144016916        0.0117607634       31.3608754986
  H         5.1521556268        2.0663722054       32.0389443783
  H         7.2620393337        0.6637615195       20.0965399842
  H         7.6834400465        1.6280155555       18.5872125210
  C         6.1036025545        2.4803122982       19.7590537897
  H        10.1592506648        0.9004485352       19.7763403924
  H         9.6983810757        0.8557240918       21.4235715981
  C        11.1436484668        2.4309874887       20.9299036110
  H         9.4353947927        3.5635453735       17.7484668240
  C        10.1217162950        6.2600206974       17.2380255794
  H         1.0423570151        4.3281006977       28.7459313795
  H         1.2216281073        6.0056906503       28.9354552520
  C         2.9735181533        5.0384448536       29.4765872894
  C         5.4422018053       -0.6215789905       32.6576220172
  H         6.3742814781        3.4336541175       19.2821779385
  H         5.9086438543        2.7550941927       20.8528106211
  C         4.8430279265        1.7770955547       19.1196749532
  H        10.9141302880        3.0931464973       21.7361842739
  H        11.4550033328        3.1747145606       20.1376171651
  C        12.3660964775        1.6817451117       21.4424139116
  C        10.2092337733        7.6777075254       17.0881508747
  C        10.4662710239        5.5005202608       16.0730581655
  H         3.5004027596        4.0611622592       29.3924770078
  H         3.6236473202        5.7834259841       29.1429394526
  C         2.4837385150        5.0755847689       30.9247841023
  H         5.6854523279       -1.7195851684       32.5486650690
  C         5.0790043626       -0.1795284062       33.9086217278
  H         3.9770536017        2.4885779267       19.2769440871
  H         4.5912231189        0.9111607368       19.8243563611
  C         5.0445137746        1.3367988374       17.6548698313
  H        12.2716459643        1.1585178164       22.3750382255
  H        12.5903386923        0.9274362315       20.6858727014
  C        13.4963166237        2.6459223643       21.8379962341
  N         9.8868291430        8.6059498026       18.1276315414
  C        10.5455690160        8.2652835491       15.9035718246
  C        10.8987316895        6.1143595464       14.8960425197
  H        10.4222222517        4.4303318348       16.0675687367
  H         1.9621302104        6.0001281971       31.1524157265
  H         2.0755809364        4.1791048657       31.3755127128
  H         3.4784693106        5.1926084508       31.4332857880
  S         4.8675769923        1.4361186208       34.4804475907
  C         4.7650154703       -1.2548979902       34.9091175652
  H         5.6331773631        2.0287211749       17.0422612562
  H         5.6692472711        0.4508160007       17.5939973673
  C         3.6778781487        1.1376182909       16.9365914348
  H        13.2439983610        3.4585231024       22.4917568934
  H        14.0267426677        2.9544352137       20.9534476189
  C        14.5439952686        1.8342862896       22.5723667387
  S         9.8825979335       10.1251523406       17.5171275686
  N        10.4524508095        9.6702790698       16.0554059733
  C        10.9305050399        7.5728715777       14.7388176228
  H        11.2846591573        5.4594914700       14.0590388767
  C         4.5316547428        0.7310265717       36.0109466262
  N         4.4407390454       -0.6478625457       36.0163195035
  O         4.6636575248       -2.4349052900       34.6106223243
  H         3.8446931620        1.0489832659       15.8261676534
  H         3.2030138295        2.0781485876       17.0652901707
  C         2.8474697532       -0.0835909753       17.3942875049
  H        14.1119159173        1.1839867175       23.3411808897
  H        15.0978695432        1.1955174139       21.8781663501
  C        15.5615656764        2.7820668410       23.2353303330
  C        11.2688259230        8.2672131019       13.5202661999
  S         4.1158840162        1.5779506757       37.4910791134
  C         4.2024274994       -1.4130465961       37.1691699111
  H         2.1754256720        0.1738223290       18.1784532860
  H         2.1491298276       -0.2179547768       16.5424342423
  C         3.6036948295       -1.3596212828       17.9021899499
  H        15.0295913675        3.1489260289       24.1338218190
  H        15.5706219539        3.6557309516       22.5427309151
  C        16.9512481270        2.1830171190       23.5521576443
  H        10.8150659976        9.2379189816       13.5673675875
  C        11.8599063880        8.0078451163       12.2927647251
  H         3.3387432874       -1.0054707309       37.7083462328
  H         3.9743661706       -2.4529460071       36.9704903345
  C         5.4771035567       -1.4814957214       38.0162632031
  H         3.6260807715       -1.3430632660       18.9813969646
  H         4.5664273774       -1.4535751286       17.5569840991
  C         2.9494692214       -2.5529393825       17.2955273361
  H        17.3842355032        2.6193361283       24.4926316526
  H        16.8834408737        1.1142782685       23.7308795354
  C        17.9368504184        2.4561441267       22.4286938513
  S        12.5830356182        6.4478737985       11.7564393804
  C        11.7208550861        9.0550200937       11.2975126204
  H         5.3662741661       -1.8356372709       39.0179007339
  H         6.2665265282       -2.0938619454       37.5840864120
  H         5.8701239941       -0.5194145769       38.2091545057
  H         2.6698902461       -2.4048403806       16.2260802786
  H         1.9987315697       -2.7936430342       17.8309983849
  H         3.7092256937       -3.2878989349       17.4110345821
  H        17.6723381290        3.4240312570       21.9722881406
  H        17.8483010180        1.7662866092       21.5970098032
  H        18.9528487653        2.4325347311       22.7932865614
  C        12.6087737068        7.3324651835       10.1874888635
  N        12.3601786267        8.6622683771       10.1903694786
  O        11.1135880857       10.1103706994       11.5107696580
  S        13.3903355153        6.7174942893        8.7075511990
  C        12.4926909443        9.5152349205        9.0054149807
  H        12.4234229267       10.5651636464        9.3134003945
  H        13.3860799155        9.3392960252        8.4109496674
  C        11.1541487629        9.4114689478        8.2103315047
  H        11.4170722403        8.9275448682        7.2382817185
  H        10.3397257966        8.9521940013        8.7465235153
  H        10.7358205093       10.4609741814        7.9401218795
  H        -2.8920815897       14.4692360324       16.1973322597
  C        -2.5292239312       13.4382773755       16.4905156525
  H        -3.4460790882       12.9879397077       16.7479752031
  C        -1.5144312128       13.4209691519       17.6186085125
  C        -1.9108454571       12.9651086285       15.1377231068
  C        -2.3122056592       13.2878977767       18.9312513804
  H        -0.8466359658       12.6002924646       17.5005678311
  H        -0.8778628457       14.2541823456       17.6831182303
  H        -0.9455053149       13.4033539950       15.0021120153
  H        -1.8175609914       11.8665906583       14.9106569882
  H        -2.5160108165       13.3499413200       14.2915821080
  C        -1.2815423460       13.4411442067       20.0480258223
  H        -2.7903194835       12.3112951014       19.0155249415
  H        -3.0787397040       14.0688590441       19.0735086332
  C        -1.9269169043       13.1787131136       21.3803524212
  H        -0.5471273874       12.6250850583       19.9816557956
  H        -0.6438617972       14.3704936059       19.9802519057
  C        -0.9707012854       12.6568380351       22.4145688277
  H        -2.6895836986       12.3515407142       21.2724945251
  H        -2.5169094331       14.0518852985       21.6612294388
  C         0.1864883824       13.5683177867       22.7436128371
  H        -1.5041118345       12.3647516879       23.3030836288
  H        -0.4977287175       11.7388107993       22.0788142867
  C         1.4678973695       12.8650675591       23.3644734084
  H         0.5497465716       14.1894118751       21.9286070699
  H        -0.1927020205       14.2321279212       23.5526914302
  C         1.8750183003       11.5571007360       22.6965824621
  C         0.9847224772       12.1255532816       24.5616286625
  C         2.5534617076       13.8604902559       23.5064222405
  C         1.5883545219       10.4196156864       23.4172704884
  C         2.3382634262       11.2044853402       21.4319064669
  C         1.0667166043       10.7826545653       24.6648862387
  C         0.6403120907       12.6875998152       25.7852682383
  H         2.6716214477       14.4826393595       22.6059511573
  H         2.3561569086       14.6041570434       24.3157845264
  C         3.9191754356       13.2606310058       23.7511244215
  S         2.1616993752        9.0093599419       22.6178204487
  C         2.4865598583        9.8923557952       21.2354973610
  H         2.4437424440       12.0582488388       20.7237332860
  C         0.7227868357       10.2114025543       25.8538606196
  H         0.6341259603       13.7182252149       25.8218165037
  C         0.2848472114       12.1481279684       26.9695474738
  H         4.0933814551       12.5810969449       22.8328886981
  H         3.9143680020       12.6134124125       24.6172395492
  C         5.0178998783       14.3035162499       23.9656000123
  C         2.8522225284        9.1217695286       19.9086920002
  C         0.2913932767       10.8115211662       27.0511632489
  H         0.8186606488        9.1082690890       25.7929488390
  C        -0.1750460237       12.5457117204       28.1938468274
  H         5.6783592588       13.9683272827       24.7625303307
  H         4.5353723383       15.1544487857       24.3833241275
  C         5.7187246946       14.4394064173       22.5558125112
  C         2.8742881270        7.7008549211       19.7254116669
  C         3.2496156429        9.9673147171       18.6898520787
  C        -0.1865279569       10.0426607825       28.2642867093
  C        -0.4403939312       11.4133404932       28.9922664605
  S        -0.4615811207       14.0330039663       28.8962048967
  H         6.1794152502       15.4524545016       22.4814149008
  H         4.8629063126       14.5729919231       21.9461260115
  C         6.7740497831       13.3980501839       22.2489201308
  N         2.5079711491        6.6878036169       20.6300104129
  C         3.0863768898        7.1883725841       18.4352558179
  C         3.4532551114        9.3731772376       17.4748254403
  H         3.1553956273       11.0321000869       18.7854866812
  C         1.0060728655        9.1699041975       28.8376546685
  C        -1.4138031900        9.1183792667       27.9674702940
  C        -0.9632882641       11.8503860219       30.2066311569
  C        -0.9118408173       13.1991114192       30.3667871298
  H         7.4752079858       13.2710485045       23.0289966164
  H         6.2427364560       12.4384293781       22.1809475908
  C         7.5735386369       13.4760946943       20.8589241400
  S         2.5825664284        5.2601454520       19.8780700037
  N         3.0414238873        5.8069480698       18.3779611835
  C         3.4635101970        7.8946922656       17.3188387239
  H         3.7341317296       10.0538620209       16.6795480583
  H         1.4092802778        8.5132490454       28.0303062658
  H         0.6404637672        8.4874706928       29.5185084616
  C         2.1994880197        9.9523007740       29.4103820113
  H        -1.1666999923        8.4227189035       27.1880275066
  H        -1.8851130255        8.7527823832       28.8561757235
  C        -2.5738230819        9.9199574012       27.3331167018
  H        -1.3313114167       11.1691981513       30.9128595834
  C        -1.2533115760       13.9231029889       31.6455316575
  H         8.3687398874       12.7347929538       20.7510389105
  H         8.0371095372       14.4190792086       20.8283247514
  C         6.5780100081       13.5555083954       19.6850059097
  C         3.7223004083        7.1953477886       16.0802103696
  H         2.6067466214       10.7564262689       28.7917595847
  H         1.7606069980       10.5548072866       30.1655034547
  C         3.3508730911        9.1154706238       29.9170061150
  H        -2.3240672297       10.4429409498       26.3807626572
  H        -2.8565479182       10.7802343213       27.9513233090
  C        -3.7692788907        9.1088015763       27.1718214044
  C        -1.3197079197       15.3354128811       31.7718838956
  C        -1.5002484477       13.1579329799       32.8931986804
  H         5.8705742282       12.6781081316       19.7044508729
  H         5.9132884882       14.4766900277       19.5594204150
  C         7.3078828569       13.3538629558       18.3550841984
  H         3.4602174844        6.1809089065       16.0873407619
  C         4.0168035809        7.6311193865       14.8517281184
  H         3.6837370035        8.5971191062       29.0345151742
  H         2.8680054993        8.4061779257       30.6559813215
  C         4.4715840272        9.9498343223       30.4602230508
  H        -3.6219303697        8.6186693045       26.2132707324
  H        -3.8736061855        8.3705312589       27.8649960739
  C        -5.0424938035        9.8750613439       27.1560398540
  N        -0.9928348622       16.2551035359       30.7735476100
  C        -1.6337771916       16.0491609115       32.9083048434
  C        -1.7688234786       13.8741326949       34.0633739312
  H        -1.4108240059       12.0707069573       32.9364213116
  H         8.1595619839       12.6970992590       18.5907661692
  H         6.5907248606       12.9499439002       17.6487431654
  H         7.6342404979       14.3008292945       17.8895979758
  S         4.3223910708        9.2708528283       14.3210343339
  C         4.1594704428        6.6010447672       13.7820392809
  H         4.5946153578       10.8060939208       29.7869907188
  H         4.1392303132       10.3399507847       31.4217848234
  C         5.7963664127        9.1772757126       30.5038786414
  H        -4.8813587456       10.7247649384       26.4568143785
  H        -5.0942606394       10.3852655168       28.1202086759
  C        -6.4014928305        9.1180604600       26.8911031502
  S        -1.0750251194       17.8058816625       31.3299636008
  N        -1.5055991466       17.4495518824       32.8421306955
  C        -1.8260087006       15.3418645393       34.1461115114
  H        -1.9605422880       13.2850167163       34.9298056510
  C         4.5087844628        8.5109460614       12.6861909244
  N         4.4413530054        7.1639224854       12.6173379740
  O         4.0030899246        5.4181260192       14.0642156952
  H         6.6111295528        9.9322709272       30.7239081163
  H         6.0194803200        8.7887856608       29.5076091720
  C         5.6805560495        7.9365020721       31.4894240758
  H        -6.3384986842        8.0825635862       26.5846921007
  H        -6.9535695941        9.2139372325       27.8327602375
  C        -7.3544796079        9.9819554987       26.0062431349
  C        -2.1455508448       16.1077229380       35.3212102431
  S         4.7947577620        9.3743345393       11.2375983849
  C         4.4430970637        6.3906416922       11.3521868262
  H         5.8260854112        8.4168556604       32.4248330897
  H         4.7574184624        7.4208968859       31.3392738164
  C         6.7907981816        6.8461212293       31.3327230686
  H        -6.7646075851       10.1144166285       25.1198197453
  H        -7.4836933229       10.9541201581       26.5003409399
  C        -8.6942685566        9.4332894217       25.6898638136
  H        -2.0128673580       17.1861000026       35.2704073832
  C        -2.7257120764       15.6732163780       36.5088516145
  H         5.2455606881        6.6256277295       10.6556075959
  H         4.6495693200        5.4402926297       11.5840000006
  C         3.0991931682        6.4811545491       10.6508370644
  H         6.8341197437        6.1430550117       32.1667664160
  H         7.7799575442        7.3434833269       31.1897060081
  C         6.6705132234        5.9994284920       30.1103354139
  H        -8.8776741441        9.8629042529       24.7028117294
  H        -8.6013865713        8.3222767323       25.7751520187
  C        -9.7303651532        9.7937106131       26.6923020017
  S        -3.2900156527       14.0916213835       36.9627518165
  C        -2.8991993178       16.6728323905       37.5628177547
  H         2.9777290651        7.4106539499       10.1446252928
  H         2.9689878390        5.6317882196        9.9691933733
  H         2.2725318636        6.4123163458       11.3230194132
  H         7.6062466184        5.7750925764       29.7044144123
  H         6.0368056356        6.4633533252       29.3446294239
  H         6.1814711330        5.0927435146       30.3958740091
  H       -10.3341821464        8.9889494638       27.0141781336
  H       -10.3681049761       10.5994458032       26.3682844432
  H        -9.1828420138       10.2539375479       27.4898730905
  C        -3.7865641104       14.8764059403       38.4942269322
  N        -3.5223361537       16.1561630814       38.6453939963
  O        -2.6352430876       17.8742069405       37.3947298728
  S        -4.5397545064       14.0046056889       39.8249034564
  C        -3.8165147711       16.9286772752       39.7993457933
  H        -3.8279121384       17.9693903501       39.4591866448
  H        -4.7736815585       16.8103458953       40.3011319396
  C        -2.8013709572       16.6863350698       40.8597909643
  H        -3.2788367133       16.7197519144       41.8055506834
  H        -2.0713999511       15.8355215369       40.6288406206
  H        -2.1364883874       17.5010073088       40.9570643773
