352
 i =    47100, time =    47100.000, E =        24.5816992020
  H        10.5457967538        7.6901502887       32.7484453097
  C        10.8528736540        6.7888489883       32.2375045906
  H        11.7815945574        6.8581905114       31.6332377021
  C         9.7534768459        6.6382833330       31.2686756396
  C        10.8925967510        5.7314076713       33.3762236868
  C        10.3048675811        6.1149146202       29.9401521410
  H         9.0127886652        5.9466656008       31.6446227242
  H         9.1328290179        7.4969722448       31.0084919417
  H        10.8010517289        4.6671130767       33.0218119187
  H        11.7617387984        5.7740186120       33.9499296960
  H        10.0878251985        6.0238221154       34.0672868324
  C         9.3102531518        5.8788321230       28.8087865143
  H        10.7189597710        5.1817904312       30.2594434090
  H        11.1161974009        6.7809291679       29.5879395745
  C        10.1088334006        5.5751875737       27.5531270835
  H         8.6553649899        4.9564284483       28.9218823480
  H         8.6205743239        6.6599804289       28.5552024568
  C         9.2639447995        4.9810327623       26.4237052182
  H        10.8240649330        4.8425900807       27.8194919422
  H        10.5887531116        6.4713468781       27.1753607843
  C         8.1624576439        5.8870729879       25.8917799913
  H         9.8679236660        4.7331619887       25.5970805777
  H         8.8885825279        4.0534431942       26.8740394547
  C         6.9893509799        5.0469295414       25.2445690419
  H         7.6227707947        6.3617652862       26.6393405304
  H         8.5227221648        6.6193487804       25.1900525284
  C         6.6146181200        3.6823180781       25.9640774798
  C         7.4139880524        4.2936358565       24.0246825222
  C         5.7348458987        5.8671250462       25.1860049024
  C         6.9639812915        2.5942666035       25.2148171709
  C         5.8155589104        3.3614136385       27.0682294081
  C         7.4797538025        2.9348418598       23.9550642299
  C         7.9574264935        4.9725875410       22.9171203979
  H         5.8294760735        6.8384120834       24.6742136340
  H         5.5114409487        6.1746516015       26.1905757759
  C         4.5817079673        5.0299049063       24.5733219878
  S         6.5781073725        1.1059095604       26.0503542875
  C         5.9233991545        2.0308588806       27.3906707563
  H         5.4192317330        4.1563800511       27.6575407907
  C         7.9115474641        2.3860908120       22.7416473867
  H         7.8046736763        6.0079950907       23.0788313122
  C         8.3364417876        4.3661754774       21.7314713906
  H         4.9150690311        4.8483186311       23.5595730274
  H         4.3744260916        4.0441187897       24.9848875271
  C         3.2399003195        5.7854653995       24.3208635029
  C         5.4784212697        1.4953215071       28.6824047652
  C         8.4073823981        3.0467746127       21.6666604119
  H         7.8727131944        1.3620541518       22.8957810374
  C         8.8353430099        4.7596242584       20.5476663625
  H         2.6422474440        5.2347834973       23.5432892634
  H         3.4482521053        6.7325232154       23.8925626680
  C         2.5243962398        5.8877495828       25.6666186286
  C         5.4261860199        0.1768946200       29.0636094653
  C         5.0720995986        2.4123522192       29.7400183521
  C         8.8712647449        2.3074894003       20.4303534176
  C         9.1366663558        3.6681309848       19.7643001245
  S         9.0752179202        6.2870142466       19.8495734495
  H         1.8266145856        6.7425465172       25.6982838401
  H         3.2792543670        6.1149209861       26.4156675019
  C         1.9051763217        4.6777771687       26.2565880944
  N         5.6761260114       -0.9379081369       28.1742726349
  C         5.2598037958       -0.2345881116       30.3580838634
  C         4.9037708518        2.0465134776       31.1013225419
  H         5.0044728512        3.4063539203       29.4329598302
  C         7.7869760058        1.3807005693       19.7701599996
  C        10.1448166414        1.4079057732       20.5775148264
  C         9.5284717030        4.0569864896       18.4448779934
  C         9.5657792816        5.4271551938       18.3231266920
  H         1.3103333518        4.3028275557       25.5040178742
  H         2.6323159679        3.9565753683       26.5295549645
  C         1.0099986415        4.8940997173       27.4160283512
  S         5.8767167033       -2.3192465874       29.0866148318
  N         5.3691610039       -1.6344483234       30.5010866383
  C         5.0297506631        0.6097115953       31.4509254984
  H         4.5089291688        2.6716207929       31.8367292783
  H         7.4364329381        0.7197843508       20.5450385170
  H         8.2533083955        0.7202409252       19.0642279007
  C         6.5731466465        2.0483762853       19.3049808491
  H        10.3240663851        1.1869266607       19.5032464489
  H         9.9856848801        0.4349735689       21.0360351149
  C        11.3658665999        2.2597576945       21.1560376944
  H         9.7606820196        3.3134429764       17.7506329514
  C         9.7726075510        6.1159226139       17.0336781049
  H         0.2042328150        4.1080493780       27.5977913694
  H         0.4077390733        5.8192283841       27.3111708477
  C         1.8553625206        4.9636746351       28.7226244371
  C         5.0665653839        0.0359215064       32.7812142228
  H         6.7943514556        2.3618908787       18.3300761767
  H         6.2719584406        2.9339754016       19.8159767592
  C         5.4623464272        1.0971455839       19.0875566870
  H        11.4457057459        2.3010755067       22.2708909298
  H        11.2848534861        3.2730959065       20.8260136512
  C        12.7388904126        1.7679467975       20.6253754265
  C         9.9230029587        7.4822126953       16.8897611473
  C         9.9625466436        5.2879752255       15.8812673430
  H         2.4270309661        4.0429070005       28.8380531496
  H         2.4061132240        5.8733615573       28.5578974002
  C         0.8939058355        5.0471809327       29.8807156374
  H         5.4966918224       -0.9466280222       32.8297785152
  C         4.6907871019        0.5424247113       34.0087262190
  H         4.9703109220        0.7827646429       19.9811932987
  H         5.8321842386        0.1546282985       18.7072942474
  C         4.4072668106        1.6236976330       18.1114624245
  H        12.9553611951        0.8263746078       21.1616329550
  H        12.6589772721        1.5452422617       19.5378694992
  C        13.8218667856        2.8343731390       20.7946219736
  N         9.6996545613        8.4165064266       17.9142363570
  C        10.2274406114        8.0481918601       15.7164248770
  C        10.3716637615        5.9003051068       14.6859094313
  H         9.8515464551        4.2234687098       15.9341927173
  H         0.6809280780        4.0631624172       30.2744207927
  H         1.4264923752        5.7558738640       30.5986758525
  H        -0.0690860392        5.5036692798       29.5127961157
  S         4.3096930174        2.1802606949       34.4568072952
  C         4.8012515615       -0.4154939683       35.1452867995
  H         4.2685543075        2.6577660255       18.0660973556
  H         4.8853502008        1.4760840144       17.1785883909
  C         3.1250401794        0.8451082084       18.0452150170
  H        13.5191248141        3.7588036901       20.2953713182
  H        14.7039532911        2.6489931591       20.1440374250
  C        14.2656896730        3.0168589629       22.2692188804
  S         9.7678374590        9.9314082167       17.2693986556
  N        10.0250777250        9.4972495437       15.7243598190
  C        10.4591368117        7.3463259843       14.5371441478
  H        10.5214985327        5.2355218680       13.8364773036
  C         4.1189848310        1.5264556751       36.0345152786
  N         4.3074234661        0.1788020085       36.2191610588
  O         5.1329027495       -1.6043811803       35.0347354714
  H         2.4132163391        1.6979394490       17.7383242902
  H         2.8690490543        0.3700517760       19.0400939805
  C         3.0369563857       -0.2454042195       17.0106169059
  H        14.9335087270        3.8969242812       22.3141780722
  H        13.3567119200        3.3693984537       22.7928973119
  C        14.8817361764        1.7910841908       23.0167126844
  C        10.7808785610        8.0242984503       13.2813355054
  S         3.7381162053        2.5253842440       37.4301029186
  C         4.3126140951       -0.5128906506       37.5114235473
  H         3.1927562252        0.1916988970       15.9908418712
  H         3.8618569671       -0.8913165513       17.1498122613
  C         1.8126888950       -1.1666511854       17.0831247372
  H        14.8434300148        1.0085189079       22.2734928826
  H        14.2111649025        1.3704866350       23.7770789535
  C        16.2829662371        1.8664490980       23.5905844768
  H        10.7991504355        9.0807736955       13.3278137824
  C        11.3230192241        7.5684415722       12.1214746553
  H         3.6541462680        0.1106178193       38.0894099055
  H         3.8193096267       -1.4751030281       37.4007697912
  C         5.7543783134       -0.6281907591       37.9932366090
  H         1.9276197702       -2.0583135786       16.4499698964
  H         0.8873280779       -0.6812754923       16.7773486835
  C         1.5486539365       -1.7434236939       18.4356974982
  H        16.3944652680        2.6872426960       24.2852130280
  H        16.5363930420        0.9015158337       24.1363973277
  C        17.3611377347        2.0542432539       22.5065690080
  S        11.9487972007        5.9808244747       11.7248017545
  C        11.5196805566        8.5755633385       11.0253149877
  H         5.9372211588        0.2747745919       38.6716950430
  H         5.8366950185       -1.4968883677       38.6165272902
  H         6.5821988576       -0.5440970754       37.2898229123
  H         1.1754392157       -0.9831941960       19.1419836887
  H         2.5729350381       -2.0841994171       18.8139298847
  H         0.9192338643       -2.5821651132       18.5748484417
  H        17.1382863261        1.2676409462       21.7123512569
  H        18.3433054499        2.0067783838       22.9432929202
  H        17.2665174405        3.0567567500       22.0539130437
  C        12.4753506425        6.6725768764       10.2108424369
  N        12.2867312239        8.0300174104       10.0495724683
  O        11.0223507334        9.7010064348       11.0675720920
  S        13.2852273069        5.7981582900        8.9450380104
  C        12.6573301184        8.7696469900        8.8198123550
  H        12.7747696310        9.7882455790        9.0609635463
  H        13.6597074381        8.4001831370        8.5197177765
  C        11.6176431760        8.5350162808        7.7347097868
  H        11.7342556128        9.2628564505        7.0038204559
  H        11.8443286700        7.5912926878        7.3205316313
  H        10.6228988404        8.7560998951        8.1871429703
  H        -2.0531757284       12.2424301575       17.0390597984
  C        -1.9832955314       13.2613368210       16.6577662436
  H        -0.8603028002       13.3285696670       16.3975990693
  C        -2.3371692129       14.3993495782       17.5853711545
  C        -2.5598969628       13.3705641267       15.2712416603
  C        -2.9347646233       13.9531036069       18.8864559955
  H        -1.4868435053       15.0637473942       17.7987768667
  H        -2.9856871932       15.0955216069       17.0614493470
  H        -3.5799397800       13.5232321859       15.2477304468
  H        -2.0755496841       14.1877375712       14.8337213652
  H        -2.3596899366       12.5074799536       14.6054275700
  C        -1.8539107937       13.4043759249       19.8912629479
  H        -3.5285756259       13.0303692386       18.6557070420
  H        -3.7310059631       14.5604730443       19.3471559469
  C        -2.4514071195       13.4882076960       21.2971026662
  H        -1.6033362888       12.3849531790       19.6280972349
  H        -0.9489417210       13.9729985851       19.7914801682
  C        -1.5320949824       12.7544367209       22.3047723874
  H        -3.4379912778       13.0140225934       21.2226280679
  H        -2.7167601293       14.4211347221       21.6084700515
  C        -0.3115623117       13.6608621614       22.6743094781
  H        -2.0616127224       12.7084946765       23.2259632191
  H        -1.2568602644       11.8503678914       21.8095310848
  C         0.9418618140       13.0576866175       23.4234480023
  H         0.0927874973       14.0152192842       21.7071428667
  H        -0.7427802306       14.3928227923       23.2958930807
  C         1.2800689916       11.6736828552       22.7438577761
  C         0.5183112491       12.3460400250       24.6478565629
  C         2.2494237279       13.8876064598       23.5103320825
  C         1.0206774387       10.6123249774       23.5651974495
  C         1.6715417063       11.2783304499       21.4719535359
  C         0.4988913126       11.0368408105       24.7148487963
  C        -0.0348490424       12.9785877799       25.7707185888
  H         2.4042159146       14.4049395353       22.6082082370
  H         2.0614690825       14.6670868867       24.2378612797
  C         3.5249416483       13.0542409155       23.7497660846
  S         1.2174511789        9.0562174237       22.8225432539
  C         1.8566299035        9.9222699854       21.4051046710
  H         1.7121548692       12.0166028433       20.6368601615
  C         0.0735888212       10.4231446399       25.8270126494
  H        -0.0055964362       14.0392103014       25.8160913909
  C        -0.4063699639       12.3844949983       26.9188233891
  H         3.7331238536       12.4481909385       22.8728606718
  H         3.3465018078       12.4775312350       24.6154187449
  C         4.6905874364       14.0061389091       23.9580679988
  C         2.3075712113        9.2239901443       20.1533263187
  C        -0.3301279634       11.0433360416       26.9925543501
  H         0.1807918971        9.3579249361       25.8282572232
  C        -0.7065992417       12.7593583435       28.2006598247
  H         5.3172179539       13.5650841310       24.7625276315
  H         4.4345896864       14.9732759712       24.3267902098
  C         5.5144256844       14.2627675004       22.7090534029
  C         2.2654434355        7.8409155087       19.8813064238
  C         2.9175814073       10.1178896412       19.0897971400
  C        -0.5403011124       10.3538657571       28.2947253346
  C        -0.7370476979       11.6975308864       28.9848787846
  S        -0.9501613094       14.2865175966       28.9501459240
  H         6.0816353620       15.2195271254       22.9566883113
  H         4.8924757597       14.2521460316       21.8744829722
  C         6.5198316386       13.1180630204       22.3264320131
  N         1.9159592452        6.8644268757       20.8103124511
  C         2.5696615874        7.3382304225       18.6236660657
  C         3.1332621084        9.6015852553       17.7935962706
  H         3.1208963557       11.1368773581       19.2893289287
  C         0.4845657056        9.4770934684       28.9316350403
  C        -1.8772818190        9.5905406038       28.2599543155
  C        -1.1201624567       12.1213048855       30.2999390948
  C        -1.2900859474       13.4632411351       30.4105655152
  H         7.1252570741       12.8427794032       23.1561198163
  H         5.9343640166       12.2271058959       22.0106120278
  C         7.4132736424       13.5395540963       21.2138339842
  S         2.0189277218        5.4198517522       20.0746438762
  N         2.4798300729        5.9265924499       18.6037209879
  C         2.9680902078        8.1438283461       17.5126616253
  H         3.5782792731       10.2063451814       17.0110915464
  H         0.6857673576        8.6943716007       28.2894208945
  H         0.0583057204        9.0177687571       29.7904205997
  C         1.8477945460       10.0766356462       29.2455621122
  H        -1.8534107524        8.7396505060       27.5595960740
  H        -2.1835957511        9.2341802849       29.2630985221
  C        -3.0731000849       10.3521952724       27.7777297762
  H        -1.1375337233       11.3964955918       31.0992089787
  C        -1.5629156128       14.1467745832       31.7480588931
  H         8.4654397194       13.3781231409       21.4247506833
  H         7.2463083748       14.5927478960       20.9948984890
  C         7.0568338172       12.8332669479       19.8949458513
  C         3.1052855051        7.5130201339       16.2016505847
  H         2.2944526909       10.2688737627       28.2304850419
  H         1.8052555846       11.0229927586       29.7700744294
  C         2.6976973235        9.1796993450       30.1079796087
  H        -2.9732224383       10.6836860605       26.7449085758
  H        -3.2897633890       11.2467754586       28.3575662302
  C        -4.3328000915        9.5172616478       27.9252845933
  C        -1.6542243783       15.5338710069       31.9163683715
  C        -1.8157310133       13.2421427763       32.8622019786
  H         7.5795519551       13.3068031454       19.0914603161
  H         7.3981982656       11.7931088997       19.9858719421
  C         5.5923198298       12.9803590539       19.4501751169
  H         2.9688176043        6.4451106984       16.3788371090
  C         3.4692560746        7.9149869252       14.9404068283
  H         2.9176616564        8.1803114775       29.5351158092
  H         2.2206191900        8.8872423008       31.0096026768
  C         3.9157037694       10.0167764161       30.6333832144
  H        -4.2758901773        8.6504764805       27.2047643784
  H        -4.3278325974        9.0317656231       28.9098526815
  C        -5.5227231838       10.4421553150       27.6667101061
  N        -1.5749651035       16.4954151172       30.8698841527
  C        -1.8412620683       16.0846936343       33.1857340730
  C        -2.1303956356       13.7872748887       34.1366055672
  H        -1.7429732259       12.1721349347       32.7631866426
  H         4.9843098555       12.2830020004       19.9965875685
  H         5.1262135516       13.9344850729       19.6843355412
  H         5.4935295819       12.7492384551       18.3562506807
  S         3.8917830193        9.4468945118       14.4381501910
  C         3.3886798349        6.8640744402       13.9657653302
  H         4.3638623565       10.4655960027       29.7472459376
  H         3.5628811322       10.8451627048       31.2132996685
  C         4.8907444317        9.1866619914       31.4654709292
  H        -5.1325975751       11.3165407471       27.0521730533
  H        -6.0419008781       10.8582967661       28.5509622618
  C        -6.5829332068        9.7813138990       26.7471975851
  S        -1.5720627818       17.9907065106       31.5596922823
  N        -2.0139144915       17.4854235779       33.0521379576
  C        -2.1623103525       15.2728511993       34.3631662861
  H        -2.2873243639       13.1351563666       34.9794190102
  C         4.0718208166        8.7590823719       12.8276483075
  N         3.8125495726        7.4461591370       12.7867937979
  O         3.2024568465        5.6773336903       14.1074457011
  H         4.3957937409        8.7924460535       32.3466117621
  H         5.5651474637        9.8233384855       32.0473895854
  C         5.6869399641        8.1224391682       30.6904656499
  H        -6.2320607675        8.8958654230       26.2286891625
  H        -7.4435266113        9.4596510553       27.3635200697
  C        -7.1011120819       10.7554762862       25.7121365362
  C        -2.4413085175       15.9603832387       35.5331346142
  S         4.6587841021        9.6323852614       11.3363858001
  C         3.9258021860        6.6190329664       11.5372369671
  H         5.2211876994        8.0770925418       29.7360621914
  H         6.5967826692        8.5481168525       30.3629492711
  C         5.7437943023        6.6252117307       31.2277512670
  H        -6.3451873304       10.8040907062       24.8845555533
  H        -7.3518722051       11.7313532174       26.0423836849
  C        -8.4265877427       10.2357546649       25.1477170864
  H        -2.1477136938       17.0233252573       35.5137133650
  C        -3.0745939792       15.6525110236       36.6711779563
  H         4.6906145825        7.0450384843       10.8383136493
  H         4.2471002753        5.5944102926       11.8420694086
  C         2.5432986076        6.4048192517       10.9141838284
  H         6.1844174886        6.6031447528       32.2454874075
  H         6.4224370453        6.0174997556       30.6707012319
  C         4.4006765293        5.9678649224       31.1690756958
  H        -8.7638962289       10.8808818783       24.3230586479
  H        -8.3287268789        9.2606081907       24.6135672856
  C        -9.5890557945       10.1246037652       26.1434321016
  S        -3.8065611594       14.1772148735       36.9412813229
  C        -3.0789531070       16.5974019768       37.7575286352
  H         2.3229523602        5.3498283260       10.7124501009
  H         1.8184221725        6.8455869078       11.5962731302
  H         2.4111012857        6.8664294117        9.9428213919
  H         3.5964950728        6.7255266086       31.1203276571
  H         4.4071069065        5.2245388064       31.9543884492
  H         4.2188568956        5.3436410722       30.3161454574
  H       -10.5461757627       10.3667669971       25.7043580678
  H        -9.5016756645       10.8752459728       27.0141411978
  H        -9.6426922509        9.0907925355       26.5657527067
  C        -4.2063536498       14.8376800524       38.5743950780
  N        -3.7256946820       16.1156047762       38.8199335952
  O        -2.8012525691       17.7863808507       37.5959950588
  S        -5.5177759225       14.2375738724       39.7326758732
  C        -4.0454047215       16.8278845639       40.0706418083
  H        -5.1331917666       17.1045852559       40.0727753437
  H        -3.8719459833       16.1462141633       40.8609766620
  C        -3.1487374871       18.0636943647       40.3528178985
  H        -3.1162686026       18.4024886722       41.3683582136
  H        -2.1718487079       17.7435455968       40.3482056701
  H        -3.5419884237       18.7833520390       39.7302601945
