352
 i =    21700, time =    21700.000, E =        24.3392316566
  H        11.1814119339        6.9845880664       33.0239362479
  C        11.2738480884        6.1231276008       32.3878356220
  H        12.2976742261        6.2120268866       32.0256230372
  C        10.1269228499        5.9564546415       31.3482590486
  C        11.3455864444        4.9140036171       33.3282064291
  C        10.4021898436        5.1263217093       30.1113210133
  H         9.2464021662        5.5523645345       31.7994196344
  H         9.8262945385        6.9352891488       30.9906138547
  H        12.3683391362        4.6745279533       33.4956446821
  H        10.8599441270        5.1661515105       34.2462269858
  H        10.8729773256        4.0549259061       32.9156285794
  C         9.4654021205        5.4155576840       28.9528671890
  H        10.6159760300        4.1117801899       30.3570122527
  H        11.3609204716        5.4870546202       29.7791134205
  C        10.2131252463        5.5332204425       27.5951666370
  H         8.7804026159        4.6252328308       28.8835853727
  H         8.9636328266        6.3882080017       29.1883549095
  C         9.3920722805        4.9879784707       26.3843826406
  H        11.0120285300        4.8417980092       27.7105804303
  H        10.5895771193        6.5661014179       27.3745474691
  C         8.1396313122        5.7708850846       26.1579653631
  H        10.0658819699        4.9735960572       25.5878844071
  H         9.2458472747        3.9304338803       26.5396784298
  C         6.9401595705        5.1038285386       25.4397565329
  H         7.7843360811        6.3035236073       26.9845071364
  H         8.3473609519        6.6656767482       25.5701346043
  C         6.5799201788        3.7752966036       26.1220016123
  C         7.3483093174        4.3883788425       24.1698688276
  C         5.7064233495        5.9904540939       25.2264846998
  C         6.8584440176        2.6794048968       25.3293229529
  C         6.1996573445        3.3735569756       27.3825495361
  C         7.3680080155        3.0150763911       24.0836802105
  C         7.9786096077        5.0949365564       23.1176917265
  H         5.9454128925        6.8153103551       24.5731074314
  H         5.4109829256        6.4507478017       26.1454305748
  C         4.5693483680        5.2768252644       24.4956641719
  S         6.5411697793        1.1502774156       26.0403085649
  C         6.1044353019        1.9909522474       27.5380429979
  H         5.9876355357        4.1149501128       28.1508710451
  C         7.8299970299        2.4606315341       22.9373328954
  H         7.9475512761        6.1403364170       23.1699397504
  C         8.4458655183        4.4696600008       21.9334723450
  H         4.9137873227        4.9619585831       23.5018235387
  H         4.4292739161        4.3142864900       24.8435566308
  C         3.1888392237        5.9071266249       24.4413174010
  C         5.7413564823        1.2849472125       28.8300602407
  C         8.3391571436        3.1194401803       21.8331730874
  H         7.9028348194        1.3711071645       23.0781418690
  C         8.8781741396        4.8770656912       20.7233734757
  H         2.6924432686        5.2311880544       23.8155479529
  H         3.0934606284        6.8305142888       23.8819566447
  C         2.4337367141        6.0439916956       25.7419117854
  C         5.7792404615       -0.1437382492       29.0088039636
  C         5.3513296957        2.0658883885       29.9875475002
  C         8.7319601779        2.4279638910       20.5317491005
  C         9.0942874022        3.7702978980       19.8807785258
  S         9.0392522923        6.3552332846       19.8796650026
  H         1.5301055540        6.5878080136       25.3875687956
  H         2.8896674264        6.7938833530       26.4028399700
  C         2.0896465535        4.7657027026       26.5228394892
  N         6.3013069423       -1.0405483555       28.0942595841
  C         5.4284943306       -0.7362893584       30.1972399709
  C         4.9930535821        1.4842920887       31.2057236756
  H         5.1630832731        3.0906816885       29.8102281181
  C         7.6341137141        1.6224588480       19.8204746874
  C        10.0014482747        1.5890777479       20.7119082893
  C         9.6772291986        4.1405874913       18.6463931696
  C         9.5696139698        5.5055003610       18.4627450125
  H         1.5279858098        4.1514776630       25.8334975415
  H         2.9756023161        4.1925156799       26.7695829803
  C         1.3942746087        5.0775363311       27.8738501386
  S         6.2077831052       -2.5014572986       28.6989106308
  N         5.4682930677       -2.1074573844       30.1076405422
  C         5.0991940061       -0.0010507730       31.3567318337
  H         4.4810387298        2.0532857720       32.0023247583
  H         7.2399825124        0.8347862665       20.4135571901
  H         8.0966783519        1.1249088524       18.9691030714
  C         6.4580049319        2.3769590233       19.3060748741
  H        10.2725546809        1.1355436318       19.7788400098
  H         9.6348485240        0.8494702796       21.3994587077
  C        11.2072466813        2.3059749346       21.4586998062
  H        10.1244014623        3.3870389520       18.0128566162
  C         9.8924065411        6.3616509702       17.2483341415
  H         0.7895768225        4.2373805611       28.0492502837
  H         0.7343736436        5.9065106945       27.9317782852
  C         2.3516746736        5.3217471318       29.0108178165
  C         4.7732941143       -0.6731282683       32.5828205122
  H         6.8286268694        2.9423232539       18.4792510157
  H         6.0736433276        3.0604420519       20.0375132860
  C         5.2957103252        1.5180782937       18.7526644454
  H        11.1087696271        2.4079843215       22.5506172589
  H        11.2983740883        3.3294117650       21.1375842913
  C        12.5384256683        1.5967580766       20.9807932909
  C         9.8366019045        7.7939735292       17.1235640507
  C        10.2231624866        5.6786571999       16.0301655576
  H         3.0936651539        4.4658581030       29.0748851438
  H         3.0791156327        6.0730276880       28.7131461286
  C         1.6846447954        5.5562288137       30.3205942516
  H         4.7217247050       -1.6835578105       32.5932171897
  C         4.5460226030       -0.2395410313       33.8187273689
  H         4.8919512267        0.8100415908       19.5012396385
  H         5.7049030028        0.9211480428       17.9543878339
  C         4.1467767360        2.2806738916       18.1099966613
  H        12.8537641019        0.7382459317       21.5713858256
  H        12.2715183600        1.2666779939       19.9625681327
  C        13.6469660474        2.6172113692       20.8268305759
  N         9.4990494647        8.6366817509       18.1755284285
  C        10.1004662052        8.4814497835       15.9641879867
  C        10.6376610194        6.3888266550       14.9068235481
  H        10.3736138817        4.5990862157       15.9823500806
  H         1.5677780295        6.5981939173       30.5633038948
  H         0.6675768484        4.9950150226       30.3762262457
  H         2.2595223437        5.0606807724       31.1317536218
  S         4.3928310481        1.4299251361       34.3034357335
  C         4.4047602188       -1.2535621818       34.8682104381
  H         4.0259946919        3.3271453373       18.4879571209
  H         4.3199670843        2.3112575707       17.1071277585
  C         2.8050984453        1.6360578645       18.3611956225
  H        13.3961545589        3.3822738534       20.0513193422
  H        14.4597819607        1.9530633779       20.4475531365
  C        14.1646268678        3.2399268158       22.0382051701
  S         9.5679327518       10.1848553677       17.6748346048
  N         9.9718348920        9.8846947459       16.1273795294
  C        10.6310046142        7.8833561365       14.8165988708
  H        11.0364644132        5.8614015258       14.1004986785
  C         4.0089934789        0.7386328380       35.8966399374
  N         4.0357444126       -0.6400968606       35.9495662970
  O         4.5087771383       -2.4577192538       34.7587556384
  H         2.0178490134        2.2678430698       18.0719965437
  H         2.7637250720        1.3880508427       19.3958784555
  C         2.5851485272        0.3930218046       17.5531777956
  H        14.8914949062        3.9453061856       21.6709143163
  H        13.3035653452        3.7515652511       22.4586079609
  C        14.6949919901        2.3884528461       23.1884203717
  C        10.9508359741        8.6564391614       13.6831931070
  S         3.2361346985        1.6494588238       37.1257854019
  C         3.9091622435       -1.3688824360       37.1852055075
  H         1.6105629419        0.5371736079       17.0410425091
  H         3.2959271446        0.2519690415       16.8143828700
  C         2.6383793517       -0.8563316887       18.5206167216
  H        14.3564740063        1.3518310510       23.1374320789
  H        14.2085585209        2.6708862189       24.1218949864
  C        16.1699818730        2.4185942538       23.3455416126
  H        10.6635883532        9.6929812677       13.9160238295
  C        11.2804940068        8.3837926187       12.4052512340
  H         3.3153160481       -0.9211794795       38.0481909262
  H         3.3972365886       -2.2295297156       36.8804376668
  C         5.2767532377       -1.8363121279       37.7870807299
  H         1.9017692472       -0.6739920082       19.3634694090
  H         3.6329727043       -0.9132252800       19.0748331729
  C         2.3974196309       -2.1450994980       17.7500683953
  H        16.5056354331        3.4140037938       23.1758484232
  H        16.5031417506        2.0562636572       24.3226876055
  C        16.8285587428        1.4721389955       22.2937994258
  S        11.6349055007        6.8679185936       11.7554395720
  C        11.4292329615        9.4868417221       11.4347968381
  H         5.9135313634       -0.9320644652       37.9104969519
  H         5.1843137480       -2.2918119881       38.7700963636
  H         5.7525469854       -2.6181807011       37.2314870341
  H         2.1254766249       -1.9217397295       16.7208312435
  H         1.6138884386       -2.7798955830       18.1757135787
  H         3.3774016583       -2.6781239604       17.5463315652
  H        17.9052492625        1.3721456426       22.3211866933
  H        16.5317318713        1.7386279780       21.2708807774
  H        16.3469723578        0.4984859114       22.4449526433
  C        11.9862566742        7.6697549750       10.2165634840
  N        11.8679947606        8.9943012732       10.2625242128
  O        11.2667860867       10.6843198932       11.6938373018
  S        12.5541883212        6.8362869281        8.6991236244
  C        11.9860604437        9.8202995218        9.0095000357
  H        12.0638629276       10.8313021025        9.3072507691
  H        12.9929012338        9.6812942737        8.5876592352
  C        10.7990350743        9.7251038183        8.1202808507
  H        10.5418740777       10.6679262661        7.6869256189
  H        10.8903033762        9.0271274723        7.3149276650
  H         9.9951554963        9.3248742039        8.7227091945
  H        -3.5346992948       14.8370320915       16.4589915420
  C        -3.4939754692       13.7321003941       16.5097741759
  H        -4.4820102450       13.4681387557       16.8788693853
  C        -2.3666866262       13.2106016667       17.4600132356
  C        -3.3092765722       13.2574849197       15.1115538796
  C        -2.7799990628       13.3798146182       18.8690039063
  H        -2.0268000202       12.1913239157       17.3280854068
  H        -1.4963402606       13.8155869138       17.1621584607
  H        -2.2489592619       13.1764811316       14.7924200227
  H        -3.8157772857       12.2827095010       15.0113679363
  H        -3.7994211126       13.8142083325       14.2914897964
  C        -1.8007673816       12.8066033724       19.9160351907
  H        -3.7841782111       12.8926619801       18.9832631884
  H        -3.0147497859       14.4234862348       19.1710816428
  C        -2.3968669847       12.9389659992       21.2950899914
  H        -1.6136070945       11.8298038420       19.7611375649
  H        -0.8431505189       13.3893425625       19.8641814836
  C        -1.3659785081       12.5983345453       22.3722604481
  H        -3.2889013666       12.3316366145       21.5107260995
  H        -2.5803454255       14.0065839822       21.3743909419
  C        -0.1924850668       13.6020864132       22.6063250058
  H        -1.9953552456       12.6364441576       23.2479259875
  H        -0.9862528345       11.5928693331       22.0890071694
  C         1.0166356349       12.9518869943       23.3410303101
  H         0.2118278521       14.1394301204       21.7196508454
  H        -0.6260679775       14.3397867416       23.2447461220
  C         1.3681881188       11.6353672214       22.6155665501
  C         0.5706157104       12.1610825343       24.5183302252
  C         2.1873203065       13.8794524931       23.6774586432
  C         1.1129636821       10.5135135249       23.3989203127
  C         1.9439315767       11.2972700880       21.3364543575
  C         0.6064547997       10.8239252836       24.6233991990
  C         0.0895072417       12.8578682831       25.6671966904
  H         2.5080676367       14.5628993195       22.8359067028
  H         1.9532900570       14.5085277076       24.4605991080
  C         3.4626465070       13.0787324643       23.8997871850
  S         1.4608301223        9.0154082640       22.5621518784
  C         1.9385579701        9.9498060032       21.1181871353
  H         2.0202291914       12.1143572698       20.6064549234
  C         0.2807311844       10.2200652112       25.7518888769
  H         0.0053547506       13.9799846632       25.5727853733
  C        -0.3288624034       12.2520618399       26.8124345609
  H         3.6685668720       12.5327907602       22.9843352567
  H         3.2371753802       12.4488563566       24.7928847415
  C         4.6282856431       14.0060159773       24.1635414518
  C         2.2797060819        9.3002360331       19.8171906620
  C        -0.1653372411       10.9026737670       26.9285687296
  H         0.4074099961        9.1283642238       25.8416021340
  C        -0.7620302093       12.5788826983       28.0839000750
  H         5.2768296588       13.4753164794       24.7937383784
  H         4.4455559671       14.8980026524       24.7711922662
  C         5.4134855755       14.1360774710       22.8663147905
  C         2.2738265583        7.8765637896       19.5075064070
  C         2.8401458636       10.1169023850       18.6918539915
  C        -0.5549154032       10.0855363527       28.1846146118
  C        -0.8720820290       11.4678776904       28.8841740040
  S        -1.2409324279       14.0143013467       28.9027698446
  H         6.0263867462       15.0095527014       23.0945991445
  H         4.7650904049       14.4931762387       22.0977097054
  C         6.2697791264       12.8735390886       22.4457772110
  N         2.0044071375        6.8878947260       20.4587140301
  C         2.5904700520        7.3324881135       18.2877878837
  C         3.1594344504        9.5561167364       17.5079821191
  H         2.9861898098       11.1684998631       18.7775071328
  C         0.5699080028        9.3065793773       28.9125589490
  C        -1.8378160930        9.1989048566       28.0173428748
  C        -1.2956706494       11.8039473831       30.1431073593
  C        -1.3510552284       13.1504677716       30.3694560154
  H         6.9366038870       12.6297226039       23.2643432169
  H         5.6417032281       12.0166818387       22.1671453747
  C         7.2828683461       13.2072279489       21.3113830751
  S         2.1521281585        5.4428094390       19.7384833766
  N         2.4747098277        5.9291868216       18.2354883973
  C         3.0179291256        8.1320031608       17.2368195294
  H         3.5481599590       10.1901749743       16.7298503127
  H         0.8100628952        8.3940925993       28.4498159372
  H         0.3168658533        8.9133307408       29.8962436174
  C         1.8703232534       10.1637413644       29.0078430711
  H        -1.4970318186        8.5660156799       27.2159500176
  H        -1.9891208229        8.6517075469       28.9439456814
  C        -3.0923197569        9.9513455933       27.7027520508
  H        -1.3169630727       11.0234645738       30.9046153205
  C        -1.7557842944       13.8996106745       31.5734263423
  H         8.1181500853       12.5320679717       21.4530324575
  H         7.6146963942       14.2134235692       21.2400187346
  C         6.6249928856       12.8861832755       19.9600050932
  C         3.1917294474        7.5476404228       15.9484312338
  H         2.1631524244       10.6033155991       27.9942697735
  H         1.6052602443       10.9965341527       29.6652707090
  C         2.8814891054        9.1889278354       29.4622171032
  H        -2.9313175476       10.6630663475       26.8364435555
  H        -3.2754523866       10.7083465601       28.4443070643
  C        -4.3382450535        9.1571807625       27.2608304502
  C        -1.9381314476       15.2605493089       31.7000623186
  C        -1.8675426312       13.1821857853       32.8030357917
  H         7.0247333640       11.8870102815       19.7541569995
  H         5.5781822436       12.8782961566       20.1792875600
  C         6.8857504398       14.0013366402       18.8835921569
  H         3.0205030179        6.4773968289       15.9319729519
  C         3.6537684394        8.0108830555       14.7419448363
  H         2.7752620489        8.3102382684       28.8403293999
  H         2.6569237712        8.8456410507       30.4558776149
  C         4.3058364887        9.6960860389       29.3927387215
  H        -4.3702858214        9.1488725711       26.1566638881
  H        -4.1921465823        8.1713100230       27.5839673961
  C        -5.5144020927        9.9555983532       27.6581462020
  N        -1.7669640530       16.2578468299       30.7074890150
  C        -2.1917281572       15.8961160333       32.9410539768
  C        -2.2908414970       13.7739900700       34.0025151520
  H        -1.7229330285       12.0723889576       32.7707760027
  H         7.9276286525       14.4523322418       18.8771158504
  H         6.5093320472       13.6012313574       17.9116787687
  H         6.1718088581       14.8619498530       19.1160530999
  S         3.8730835577        9.6447202842       14.2367089402
  C         3.7475811385        6.9526788676       13.6474307111
  H         4.5134103782       10.1736775664       28.3987132872
  H         4.4199207610       10.3822436138       30.2478751903
  C         5.3403440705        8.5525192522       29.6026540348
  H        -5.6009386491       10.9398537029       27.2542330703
  H        -5.6239615482        9.9750397228       28.6971287997
  C        -6.7470438208        9.3386761538       27.1171317749
  S        -1.9820539164       17.7184953507       31.3372770322
  N        -2.4153820640       17.2647300102       32.8208152815
  C        -2.5395313556       15.1777970258       34.1226305059
  H        -2.4302211697       13.1475671666       34.8654816984
  C         4.2182080114        8.8813723304       12.6382285636
  N         4.0824367276        7.5332065177       12.4678227878
  O         3.5981992246        5.7515443431       13.8691192954
  H         6.2569451547        9.1485689740       29.7307256683
  H         5.2988643529        7.8881414002       28.7497125846
  C         5.1604812650        7.6311641438       30.7656433908
  H        -6.4931553918        8.7922795089       26.2182812436
  H        -6.8608712664        8.4215988504       27.7707305130
  C        -7.9041721414       10.3670720533       27.1500339010
  C        -2.7395550795       15.9595070467       35.2779606051
  S         4.8634822427        9.8042637132       11.3481013816
  C         4.0635159934        6.7681222480       11.2607043632
  H         5.5064392116        8.2116809162       31.6282440151
  H         4.0750448222        7.4403250579       30.9133140906
  C         6.0421648497        6.3447915048       30.6075837031
  H        -7.6445019129       11.2308406747       26.4711701349
  H        -8.1274068011       10.7880042471       28.1055122642
  C        -9.2015674818        9.7805023593       26.6076960259
  H        -2.4341614631       16.9645132646       35.2603453154
  C        -3.2941315914       15.5476801321       36.4668310111
  H         4.5332152440        7.2728848291       10.4161006783
  H         4.6660668026        5.8659262696       11.3407696237
  C         2.6804812783        6.2492344168       10.7817208656
  H         7.0646877764        6.6097813329       30.7912907644
  H         5.9440451543        5.9601630016       29.6430461559
  C         5.7458752001        5.3575466640       31.7255271331
  H        -9.3778418947        8.7687912851       26.9831918816
  H        -9.9715215172       10.4156033712       26.9921622288
  C        -9.2167227078        9.8330703200       25.1221865454
  S        -3.8655380281       13.9275057632       36.8588809629
  C        -3.3991244178       16.5698256003       37.5054742240
  H         2.3953624107        6.8225960578        9.8738595487
  H         2.8014660020        5.2223368572       10.4682139210
  H         1.8749479156        6.3811274426       11.5071225415
  H         4.7749837523        5.0001609384       31.6305662573
  H         5.6447141200        5.8199788632       32.6800730156
  H         6.4698696255        4.5143645319       31.8124594030
  H        -8.4521332577        9.1827419735       24.7821324197
  H        -8.8843944156       10.8124578314       24.6860127625
  H       -10.2615431563        9.5256072200       24.7315996060
  C        -4.1624931798       14.6644366066       38.4351946930
  N        -4.0282814219       16.0101472999       38.5142481005
  O        -3.1481427534       17.7561592914       37.4155153821
  S        -5.0512195103       13.8205515759       39.6678443843
  C        -4.4738396484       16.7142365429       39.7117550198
  H        -4.5269473477       17.7315042709       39.3541199283
  H        -5.4274380389       16.2764443338       40.0045670773
  C        -3.3900723150       16.6215135571       40.8618876214
  H        -3.7809878426       15.8664793280       41.5593367398
  H        -2.4462481829       16.1951080011       40.4780381262
  H        -3.3492713504       17.6919334506       41.3018617980
