352
 i =    40000, time =    40000.000, E =        24.7714452744
  H        11.5432664004        7.2545862635       32.3962745442
  C        11.5844881251        6.3132070336       31.9938121869
  H        12.5195172111        6.0849929745       31.4857481645
  C        10.4388320356        6.0808102827       31.0130985701
  C        11.2900590236        5.6369619437       33.3648310221
  C        10.7408116565        6.4224080807       29.5390491908
  H        10.0369407366        5.1039184605       31.0692528659
  H         9.6509128378        6.7109407856       31.4074658697
  H        10.5670346572        4.7995317202       33.3251219420
  H        12.2303840583        5.2864440885       33.7947500136
  H        10.9339749740        6.2243387381       34.2108091039
  C        10.7471087665        5.2083208106       28.5886407070
  H        11.6412440279        6.9647027343       29.5357788533
  H        10.0617382450        7.0948565330       29.1195776637
  C        11.1127438055        5.5237165142       27.1125962555
  H        11.4738730609        4.4663586027       29.0331446677
  H         9.8205647884        4.6479228156       28.7008922395
  C         9.9107440917        5.0398839111       26.2190176365
  H        11.9379423113        4.9059400927       26.8874447122
  H        11.3015905658        6.5951738586       26.9621719124
  C         8.7821799859        6.0175436575       26.1285903848
  H        10.2315038989        4.9202058156       25.1885435056
  H         9.6823486484        4.0349749175       26.5744953686
  C         7.6298462623        5.3415567569       25.3767548921
  H         8.3696421847        6.3237247111       27.1650912846
  H         9.1214438609        6.8319777007       25.6462981936
  C         7.2618522466        3.9388028027       26.0510596868
  C         8.0065683753        4.5882259717       24.1471858411
  C         6.3184530030        6.2379339861       25.1042129475
  C         7.3523103234        2.8473704042       25.2762691028
  C         6.6156117822        3.5703190901       27.2209887035
  C         7.8048694826        3.2145271383       24.0476853104
  C         8.3561946746        5.1638795959       22.9633089013
  H         6.5804563889        6.9190871649       24.3615004700
  H         6.1641727776        6.7212391377       26.0817442169
  C         5.0916648834        5.5238874901       24.5598844948
  S         6.6837285653        1.3701400149       25.8436395712
  C         6.2960827999        2.2122144549       27.2915802344
  H         6.4907251088        4.2768961720       28.0291264947
  C         7.9976039627        2.5441310664       22.8783092313
  H         8.4866901849        6.2032712267       22.9324189104
  C         8.5616513618        4.5144439516       21.8011666217
  H         5.2972482623        5.2471779972       23.5735219245
  H         4.8800679212        4.5562374378       25.0095242043
  C         3.7315397798        6.2603069818       24.7372350533
  C         5.9040210163        1.5019576776       28.5665652258
  C         8.4072905781        3.1664692600       21.6732888213
  H         7.8115425215        1.4783703065       22.9598797741
  C         9.0058367780        4.8276532422       20.5406111566
  H         2.9531069400        5.8930758825       24.1025103763
  H         3.9465210489        7.2652417193       24.3127512185
  C         3.2837697710        6.5085248135       26.1602452628
  C         5.9882568259        0.1463155141       28.7747881570
  C         5.6673776324        2.2228599323       29.8201053950
  C         8.6619102802        2.3890852838       20.4671598769
  C         9.0125326744        3.7555068884       19.7234152032
  S         9.4976436156        6.2620961879       19.7670357706
  H         2.4425253379        7.1422081082       26.0063636884
  H         3.8761615980        7.1816002786       26.7713250311
  C         2.9936920557        5.1380545319       26.8095321928
  N         6.2425382755       -0.7674619787       27.7029429509
  C         5.7140601873       -0.5129627256       29.9584428609
  C         5.4517175983        1.6474915023       31.0868267137
  H         5.5576014887        3.3337155488       29.8230357551
  C         7.4853068900        1.6997172827       19.8860872543
  C         9.8777845486        1.4705669947       20.5750596156
  C         9.3990370531        4.0868127980       18.4100897377
  C         9.5774504097        5.4028740827       18.2711436405
  H         2.7451454953        4.4206549199       26.0321327240
  H         3.8879156619        4.8310148129       27.2734442464
  C         1.8815017790        5.2266617764       27.8224455593
  S         6.2104241528       -2.2701351885       28.2941683104
  N         5.8631421266       -1.9115233141       29.8317624111
  C         5.3816292754        0.1388655453       31.1705967061
  H         5.1214417089        2.1975055685       31.9772066198
  H         6.9116173822        1.0759869977       20.6264790397
  H         7.7818554047        1.0444942043       19.0194021487
  C         6.4762838270        2.6583359339       19.2415806806
  H        10.0684046137        0.8973950281       19.6692404261
  H         9.7055221270        0.7397815838       21.3811409418
  C        11.2530741743        2.1841263536       20.7389068425
  H         9.4392618751        3.2087321772       17.7538741174
  C         9.8910201248        6.1438067748       16.9662498208
  H         1.2656476540        4.3230807418       27.8338223177
  H         1.2848696066        6.1070843283       27.7425299869
  C         2.5416421176        5.2991737263       29.1982952262
  C         5.1687510748       -0.6219475083       32.3466663897
  H         6.8817241851        3.1732047569       18.3875163291
  H         6.3025429564        3.4376235063       19.9135139288
  C         5.2563125953        1.8427018191       18.8302359105
  H        11.3525791901        2.7914484007       21.6825533377
  H        11.3935591136        2.9478287703       20.0562388172
  C        12.5604297514        1.4016353952       20.7986258473
  C         9.9372641106        7.5292979410       16.8247551167
  C        10.2291523930        5.3537775225       15.7764723226
  H         3.0590623028        4.3189621249       29.3908567774
  H         3.3637917466        5.9810547435       29.1762906854
  C         1.5761902298        5.5423364384       30.3614808268
  H         4.9278871046       -1.6074297003       32.1234496607
  C         4.8930721731       -0.2116225137       33.6278450633
  H         4.6922196495        1.5809272124       19.7495595043
  H         5.5920591520        0.9600484994       18.3039062885
  C         4.3786191789        2.5639216257       17.8584397452
  H        12.5239357592        0.7809220142       21.7081031498
  H        12.7653450950        0.7431409666       19.9536821520
  C        13.7929931053        2.2819170860       20.9578563846
  N         9.5327996426        8.4454303071       17.8559671783
  C        10.3359837468        8.1682422687       15.6145416773
  C        10.4856343882        6.0070818112       14.5513236932
  H        10.1143326028        4.1752749699       15.8098216555
  H         0.9962797022        4.6484519297       30.5824476938
  H         2.1233066012        5.7592640877       31.2676340292
  H         0.8925392938        6.3678018503       30.1181129588
  S         4.7458428593        1.3471888662       34.2260236018
  C         4.5378913604       -1.2791123807       34.5950766810
  H         4.5524493942        3.6555184949       17.9056572978
  H         4.7232800317        2.2193780269       16.9547851067
  C         2.8577419482        2.2423408712       18.0370092047
  H        13.6524498332        3.2396514791       20.4213615116
  H        14.5301427907        1.7244204150       20.4129004120
  C        14.1348511196        2.5383359139       22.4415588226
  S         9.8691526945        9.9907641991       17.3378567399
  N        10.2929851635        9.5742686580       15.7815956335
  C        10.6915549723        7.4962542770       14.4542082258
  H        10.5429096007        5.4668999678       13.6298115719
  C         4.3521888921        0.6372443723       35.7987686955
  N         4.2740458860       -0.7235972616       35.7610227888
  O         4.5977118685       -2.4830794890       34.3866520464
  H         2.4329897600        2.6537310720       17.1325865779
  H         2.4799414378        2.8811765737       18.7757447158
  C         2.3785406182        0.7916977992       18.1717702754
  H        14.5958886676        3.5084472235       22.5460995069
  H        13.2148064189        2.5704111654       23.0147716312
  C        14.8762981260        1.3394577256       23.1187472423
  C        10.8656330020        8.2290380221       13.2276809961
  S         4.3432693484        1.5730832740       37.2946936738
  C         4.3371380624       -1.3975901977       37.0553231247
  H         2.7930585132        0.2244104381       18.9777785900
  H         1.2775896542        0.6345441994       18.1968542483
  C         2.8649688166        0.0732906150       16.9198638481
  H        14.8919858572        0.4581387962       22.5376999772
  H        14.3784759122        1.0129285522       24.0112130873
  C        16.2973743650        1.8548401422       23.6005176129
  H        10.5880827095        9.2489946230       13.3038074528
  C        11.4384471940        7.7935074700       12.0507207289
  H         3.7015289486       -0.9186811065       37.7682250067
  H         3.9770631514       -2.4353901948       36.8928172201
  C         5.7501243582       -1.4440624547       37.5680754075
  H         3.9065533563       -0.1428303730       17.0068747279
  H         2.6589615404        0.6031839986       16.0354257235
  C         2.2854869887       -1.3323107363       16.7215831361
  H        16.0990399747        2.7746995938       24.0447601917
  H        16.8009636395        1.1286866417       24.2083200982
  C        17.1374399090        2.0378353710       22.3712205959
  S        12.1797609849        6.2770889507       11.6515994140
  C        11.6195362879        8.7858189249       10.9637430944
  H         5.8979883767       -2.3973176973       37.9896284170
  H         6.5665908829       -1.5501537108       36.8024797997
  H         6.0030556991       -0.6438632292       38.3107194773
  H         1.8529254848       -1.8071045463       17.6565360267
  H         2.9600623602       -2.1504530400       16.3051111872
  H         1.5149081948       -1.1854270963       15.9613095133
  H        18.0593725594        2.6618946627       22.5369582848
  H        16.5799773313        2.4650758135       21.4975948399
  H        17.4092825590        0.9857221502       22.1409984240
  C        12.6391676873        6.9705516892       10.0800184407
  N        12.3592456885        8.2776529790        9.9441825319
  O        11.2910695606        9.9694044051       11.1154410020
  S        13.4487552211        6.0889648534        8.8115917126
  C        12.5709679791        9.0746275063        8.7541630586
  H        12.5893140146       10.0830404193        9.1588138979
  H        13.4789189100        8.8943497336        8.2215391222
  C        11.3279513074        9.0075584456        7.8992731762
  H        11.0160086791        8.0149371477        7.7250289843
  H        10.5431592044        9.6251313849        8.3992655193
  H        11.6162926733        9.4471834906        6.9360662510
  H        -2.0826431020       15.2534104892       16.7565985119
  C        -2.3399627551       14.1736023993       16.7429663671
  H        -3.3932720303       14.2845526866       16.9897009408
  C        -1.6148708327       13.5066653359       17.8250386881
  C        -2.3213788418       13.6553329355       15.2719902288
  C        -1.8757369473       14.0519866230       19.2402272018
  H        -1.8208845038       12.4840072221       17.7135937361
  H        -0.5021191111       13.7338349321       17.8582372089
  H        -1.3991899103       13.9659193073       14.7196887482
  H        -2.2334257455       12.5774288027       15.2103390465
  H        -3.2532838739       14.0461599969       14.8039406369
  C        -2.3901707446       12.9517446405       20.0889991709
  H        -2.6535049530       14.8202471848       19.1220924236
  H        -1.0123404529       14.6068499721       19.5326526048
  C        -2.7497298332       13.3085884823       21.5090415855
  H        -3.3444841961       12.4996965431       19.7896849076
  H        -1.6266646730       12.2475328280       20.0470421418
  C        -1.6650831562       12.7302301359       22.4472513288
  H        -3.6965924054       12.7961892205       21.7052387773
  H        -2.9888347092       14.3706370527       21.5289574796
  C        -0.4777930536       13.5919261599       22.6889563401
  H        -2.1142479509       12.5688025620       23.4399710844
  H        -1.3591164408       11.6361967495       22.1955633603
  C         0.7989349038       13.0196419197       23.2823829329
  H        -0.0990232153       14.0526402225       21.8161194261
  H        -0.7392751424       14.4545220818       23.2743258226
  C         1.1568616235       11.6944888121       22.5501262827
  C         0.6001419214       12.2679775553       24.5201904726
  C         2.0604914384       13.9798002962       23.2476309359
  C         1.0421975418       10.5330553944       23.3420559968
  C         1.6904889970       11.3678161963       21.3311429280
  C         0.6709032299       10.9424391011       24.5778242042
  C         0.2264708013       12.9687956684       25.6602496274
  H         2.2138772899       14.4132764950       22.2377236641
  H         1.8950538219       14.8562160175       23.9539466288
  C         3.3963058297       13.2477127714       23.8285177909
  S         1.6827238279        9.1722632736       22.6240362698
  C         1.9934813801       10.0165823811       21.1873887314
  H         1.7847533262       12.1086779599       20.5329798250
  C         0.3798168310       10.4084501036       25.7942513914
  H         0.2470329251       14.0278384061       25.6541563020
  C        -0.0386282438       12.3972539758       26.8875402497
  H         3.6763919088       12.2833458746       23.3411216464
  H         3.1992947883       12.9685766650       24.8963717285
  C         4.6290198075       14.1682718081       23.6231340567
  C         2.5152052064        9.3753163226       19.8815833739
  C         0.0595720628       11.0704465860       27.0083679305
  H         0.3628171525        9.3068792563       25.9278608385
  C        -0.3886214449       12.7675604673       28.1858150822
  H         5.4108308125       13.9110957013       24.3027012463
  H         4.2010454851       15.1628890210       23.9212550561
  C         5.1714223778       14.3813113506       22.1855764618
  C         2.6163501604        8.0039034373       19.6482799442
  C         2.7521707931       10.1976464354       18.7014612410
  C        -0.3664885935       10.3525189003       28.2630417515
  C        -0.6743774054       11.6765645630       28.9913284150
  S        -0.6263243107       14.2478344690       28.9947708518
  H         5.6789452344       15.3793274543       22.0959680457
  H         4.3072631272       14.5136619751       21.5800471413
  C         5.9890594272       13.1536581451       21.6567315156
  N         2.4816081203        7.0311178530       20.6477023936
  C         2.9635878323        7.4895583086       18.4292460017
  C         3.0220533511        9.7469106621       17.4350404825
  H         2.6104414300       11.2352871878       18.7280093969
  C         0.7957664890        9.5665883899       28.8456101597
  C        -1.6564838319        9.5349820856       27.8878965921
  C        -1.1515242236       12.0758164487       30.3009774800
  C        -1.1822238164       13.4726931770       30.4135982345
  H         6.4728606809       12.6567778794       22.4897529910
  H         5.3642989264       12.4180630498       21.2306957362
  C         7.0010468572       13.6436039809       20.6235149762
  S         2.5462583958        5.5866152016       19.9149583509
  N         3.0382337549        6.0703321459       18.4712308413
  C         3.1370661442        8.2668202684       17.2888919942
  H         3.1396092884       10.3720579338       16.6261964331
  H         1.1913916638        8.8666234491       28.1781034680
  H         0.3805146849        8.9019874194       29.5804368742
  C         1.8837080757       10.2997341233       29.5128350570
  H        -1.4281529140        8.7894732562       27.1091025472
  H        -1.9190222019        9.0680103227       28.8215043621
  C        -2.9585913384       10.3403034451       27.4681876285
  H        -1.5788239936       11.2817852299       30.9113466654
  C        -1.4986185046       14.1870929910       31.7077259571
  H         7.7180801573       12.8976240399       20.2620678268
  H         7.6293823493       14.4352430580       21.0633791307
  C         6.2472222824       14.2148072780       19.4267574479
  C         3.4164701881        7.5670087621       16.0673251527
  H         2.1338805002       11.2215900077       28.9149539021
  H         1.4132160043       10.6780541987       30.4115424651
  C         3.0459415525        9.3816000156       29.8637542503
  H        -2.7750198172       10.7924310795       26.5075998311
  H        -3.0793361479       10.9837068780       28.3685293657
  C        -4.2481763970        9.5234262889       27.0788696563
  C        -1.4237575038       15.5860306412       31.9173512054
  C        -1.8289128011       13.3581417968       32.9512696163
  H         5.6548949217       15.0228929465       19.7808157359
  H         6.9570012003       14.6636623510       18.6922799711
  C         5.2314880854       13.3066274916       18.6816899072
  H         3.2905905653        6.4860763790       16.0303626691
  C         3.7540763873        8.0295306597       14.8392270665
  H         3.4340662834        8.9200812505       28.9541121163
  H         2.6483181340        8.5700373386       30.4011003176
  C         4.2694103210       10.0230334271       30.6055068955
  H        -3.9104129382        8.8331240647       26.3142507961
  H        -4.7278498860        8.9251619221       27.8884321069
  C        -5.2755135894       10.3917022762       26.4342513473
  N        -1.0630211586       16.5450747470       30.9529135392
  C        -1.7169527309       16.1929470824       33.1315528020
  C        -2.1381719034       13.9327709762       34.1846164846
  H        -1.8411724581       12.3451706827       32.8278623469
  H         4.2725404695       13.7931112719       18.6779692215
  H         5.3709883658       13.1746364326       17.6086499949
  H         5.2012038844       12.3216066858       19.0956309555
  S         4.0540689248        9.6555737872       14.3431959712
  C         3.9355630625        6.9641871216       13.8110481666
  H         4.5575063188       10.9289796493       30.0732564548
  H         3.9735663802       10.4411643963       31.6341525376
  C         5.5051871097        9.1037100043       30.6906909915
  H        -4.8153362810       11.1670646044       25.8080098606
  H        -5.7305545793       10.9774931777       27.1959744911
  C        -6.3127112784        9.4582268555       25.6901427451
  S        -1.3267861116       17.9965398810       31.4737368430
  N        -1.6061372760       17.6181813910       33.0730742917
  C        -2.0615731785       15.4183755169       34.2941073363
  H        -2.3396106493       13.3073550720       35.0819643253
  C         4.3261887517        8.8890250278       12.7593530673
  N         4.2391984340        7.5373640655       12.6632934713
  O         3.8917628163        5.7439986169       14.0115912859
  H         6.3990402743        9.5301712071       31.1247376362
  H         5.9326623442        9.0282126284       29.6751838606
  C         5.1843315748        7.7665084307       31.3459284022
  H        -5.8547079429        8.9408299295       24.7735997894
  H        -6.7601699792        8.7605867155       26.4262002761
  C        -7.4221500374       10.4255920431       25.1824174040
  C        -2.3218318112       16.1623913767       35.5241811788
  S         4.6414677379        9.6492519342       11.2444074463
  C         4.3146199448        6.7898312449       11.3776872960
  H         4.7463150290        7.9748671321       32.2932600687
  H         4.3522995576        7.3639762436       30.8019137311
  C         6.3597516254        6.7781062612       31.4142618707
  H        -7.3726872854       10.5023100238       24.0653001694
  H        -7.3110104567       11.5110743989       25.4171265731
  C        -8.8024311727       10.0150434102       25.5372247492
  H        -2.3045897004       17.1822242131       35.3364260301
  C        -2.7773170067       15.9030130815       36.7783234198
  H         5.0081289522        7.0888608318       10.6285825001
  H         4.5453233101        5.7428202680       11.6188785331
  C         2.9034851344        6.7333620701       10.7387618601
  H         7.1572909266        7.2727102765       32.0266238865
  H         6.7968164658        6.6001412764       30.4634405574
  C         6.0592066073        5.5333144061       32.2936794920
  H        -9.3387637350       10.2867584180       24.6690773250
  H        -8.9085333685        8.9078011160       25.4673960064
  C        -9.4955683312       10.5914116630       26.7867971633
  S        -3.1589059106       14.3636700788       37.5572963926
  C        -2.9105347915       17.0562275885       37.6578315653
  H         3.0075005717        6.6736788697        9.6967390196
  H         2.4145440099        5.8392949312       10.9639635021
  H         2.3220829929        7.5048719821       11.0775212364
  H         6.3463905434        4.6246185665       31.8412457357
  H         5.1259486104        5.3189937466       32.7456451797
  H         6.7560830882        5.6779856266       33.1202375371
  H        -9.9842231538        9.7964720607       27.2987439095
  H       -10.2294818403       11.4021596266       26.5504751591
  H        -8.8152743614       11.0761019687       27.4915772977
  C        -3.8717671964       15.3947623060       38.8043187186
  N        -3.5152747738       16.6751468664       38.7900140365
  O        -2.4125514429       18.1694647988       37.4504802669
  S        -4.6193861625       14.7534505751       40.2145724543
  C        -3.8011448367       17.5730893159       39.8297051797
  H        -3.9110246786       18.4653244065       39.2400036584
  H        -4.6767443649       17.3939358428       40.4236289537
  C        -2.5752412055       17.7214928981       40.7422567685
  H        -2.9145150003       18.3986693356       41.4829995739
  H        -2.2972301754       16.8087309489       41.2545502298
  H        -1.7580440683       18.1665378691       40.2908270522
