352
 i =     9300, time =     9300.000, E =        23.8106159139
  H        11.6142325190        6.9333832484       32.1646732302
  C        11.2833467633        5.9107118282       32.2840137468
  H        12.1305991438        5.2794885796       31.9345223738
  C        10.1442033470        5.8263475749       31.3109123490
  C        10.9690999759        5.6891710540       33.7454129675
  C        10.6466762448        5.3279731271       29.9153208265
  H         9.3709592430        5.2117516521       31.7453885508
  H         9.9010512737        6.8687429631       31.1668966344
  H        10.2230270815        6.4168400540       34.0450909396
  H        10.5598813468        4.7032799277       33.7928740502
  H        11.8778560405        5.7471032949       34.3494550047
  C         9.6941043129        5.7669609444       28.7116616783
  H        10.6147410587        4.2244243268       29.8695044398
  H        11.6705976154        5.5825323600       29.6667196697
  C        10.3360296856        5.6457603514       27.3362703370
  H         8.8265356657        5.0454447063       28.8614946666
  H         9.3291221555        6.7846563086       28.9096042115
  C         9.4365275856        4.9744018154       26.4074739141
  H        11.2386330224        5.1151389484       27.3702509407
  H        10.6051069056        6.6669526063       27.0166018860
  C         8.1616556285        5.8400727684       26.1140818362
  H        10.0491801204        4.8258502876       25.5397108928
  H         9.1368875906        4.0188793891       26.7810127097
  C         7.1154733635        5.0660002217       25.3223536253
  H         7.6868609357        6.1209887296       27.0447011526
  H         8.4709198425        6.8152920182       25.6146969515
  C         6.7424157607        3.7283338368       26.0125194961
  C         7.6607194405        4.3110167203       24.1769696057
  C         5.8470458303        5.9309699001       25.0545138855
  C         7.1238720328        2.6182845902       25.2754070595
  C         6.1949818633        3.3403352011       27.2543939820
  C         7.7324213015        2.9920567884       24.0738699661
  C         8.2720009619        4.9600144011       23.0926951405
  H         6.0665051109        6.6236046262       24.3003687830
  H         5.7926936207        6.4800395909       25.9754621692
  C         4.5306235633        5.1370118209       24.9590209378
  S         6.8086471247        1.1352051647       26.1021637758
  C         6.1941971889        2.0090764908       27.4902106988
  H         5.8361458611        4.1392183434       27.8869927370
  C         8.2667586685        2.3130739757       23.0049699232
  H         8.2079058130        6.0882433139       23.0984640971
  C         8.7480040869        4.2909546412       21.9815283862
  H         4.5374004445        4.5222166047       24.0804953846
  H         4.2866869481        4.5512980375       25.8279012432
  C         3.3289388908        6.1329403911       24.8311078502
  C         5.8389224343        1.3864645851       28.8273592295
  C         8.7413773254        2.9231330385       21.8844052004
  H         8.3038556197        1.2366306742       22.9325331331
  C         9.2449347272        4.7009803750       20.7812616654
  H         2.5470715757        5.6960838192       24.1125633559
  H         3.6927968317        7.0045808766       24.3668240171
  C         2.5707957607        6.5660987103       26.0882568698
  C         5.8860250912        0.0100578675       29.1297154705
  C         5.3381299208        2.2993919491       29.9328810585
  C         9.1446920475        2.2225731345       20.6790919246
  C         9.3149541366        3.5810430927       19.9362922085
  S         9.4351651346        6.2281543406       20.0256122476
  H         1.9063410082        7.3809462887       25.8253658908
  H         3.2386781009        6.8614260684       26.9480534174
  C         1.6322189696        5.4254364932       26.6013095966
  N         6.3193601714       -1.0018027583       28.2592666049
  C         5.5110507058       -0.4658551026       30.3701371083
  C         5.0576433343        1.7875599195       31.2265507914
  H         5.2178279622        3.3444591576       29.8230841589
  C         8.0504209884        1.2826566147       20.0749267678
  C        10.4478282165        1.4989836856       20.8434309875
  C         9.6603310104        4.0121536126       18.6419914931
  C         9.7276560208        5.3808531268       18.4945905059
  H         0.7900237710        5.3111462231       25.8523530780
  H         2.1559503138        4.4990136954       26.7361249285
  C         0.9356630036        5.6537956114       27.9848162137
  S         6.0802999936       -2.4216870618       28.9752882886
  N         5.5797308341       -1.8998465201       30.4260245590
  C         5.1814027849        0.3354819920       31.4438842933
  H         4.7702228567        2.5103285409       31.9002993858
  H         7.7656713826        0.5691725372       20.8045698628
  H         8.5573536638        0.7553341992       19.2761007061
  C         6.8689428348        1.9582536878       19.3762473425
  H        10.7384913326        1.2894546071       19.8096742262
  H        10.4167010859        0.6879897768       21.5226995508
  C        11.6477947303        2.2804682081       21.2971019410
  H         9.7872077493        3.2716234817       17.8534917181
  C         9.9709376928        6.1117159601       17.2068498708
  H         0.3232536310        4.8003241811       28.1727612046
  H         0.2989613790        6.4779757840       27.9990666415
  C         1.9630268376        5.7109593792       29.1362760730
  C         4.9041256550       -0.2583503317       32.7385160724
  H         7.1122114199        2.6120624703       18.5541756554
  H         6.3995935006        2.5670699150       20.0930471015
  C         5.7564285945        0.9587922670       19.1268649400
  H        11.1854507198        2.8198374332       22.1348377910
  H        11.8303297063        2.9498658108       20.4464829151
  C        12.8876430876        1.6375438576       21.6812762028
  C         9.9909121789        7.4934955762       16.9457532280
  C        10.2955452157        5.2874151428       16.0671126332
  H         2.5084449864        4.8232249053       29.0944912830
  H         2.6295724481        6.6150560386       29.0549130943
  C         1.2441848913        5.7921071016       30.5433811847
  H         5.0216942755       -1.3285442837       32.7401382313
  C         4.5533308069        0.1651863060       34.0088171466
  H         5.5252799323        0.5097901197       20.1001400474
  H         6.0608057931        0.1722531880       18.3975018964
  C         4.4937956614        1.6891971943       18.5941400510
  H        12.8027589840        0.9586971855       22.5391202795
  H        13.0931694673        1.0511813182       20.7915430472
  C        13.9757576627        2.6885701323       21.9592640051
  N         9.9117446452        8.4467392032       18.0480319757
  C        10.2179885372        8.1233517780       15.7782851853
  C        10.5965300153        5.8695214703       14.8187680692
  H        10.2667264364        4.2115999763       16.0862513782
  H         1.5338145469        4.8580674643       31.0368189462
  H         1.4608245526        6.7173751473       31.1516757835
  H         0.1995774908        5.8875877897       30.5187777394
  S         4.1686421531        1.7768708911       34.4460802811
  C         4.4638222797       -0.7730109121       35.1085571911
  H         4.5086999388        2.7673729884       18.6811011423
  H         4.4810828979        1.6411934606       17.5427366565
  C         3.1454222131        1.2025648716       19.1774628518
  H        13.4425848696        3.6330341676       21.9892628075
  H        14.5049580330        2.7340245132       21.0494063000
  C        14.8317207195        2.3800087042       23.1984411443
  S         9.9578504968        9.9155904337       17.4590778359
  N        10.1352518860        9.5416221758       15.9041764331
  C        10.5406765471        7.3590201720       14.5987961192
  H        10.9913970807        5.2216940306       14.0540574101
  C         3.9007209682        1.0891277941       36.0590368190
  N         4.0770963732       -0.1893267079       36.2363638357
  O         4.6782747783       -1.9842871190       34.9175111423
  H         2.5389458129        2.1458811379       19.4970229191
  H         3.2929604303        0.6293977942       20.1381684897
  C         2.3327629161        0.3962963809       18.1847543752
  H        15.3957832678        3.2559933842       23.5051152563
  H        14.2206516292        2.2899951224       24.0397156704
  C        15.8501811889        1.3018525029       22.9242061738
  C        10.8607474745        8.1177288248       13.4325174065
  S         3.6634569899        2.1205594006       37.4395732198
  C         3.9138721079       -0.9469232202       37.4696296422
  H         1.4335802608       -0.0398461561       18.5320824721
  H         2.0980998972        1.0034178449       17.2957487294
  C         3.2249203579       -0.7805434876       17.5578471043
  H        15.9447822766        1.0854801985       21.8734443156
  H        15.4055974650        0.3317067116       23.1891747333
  C        17.2760838694        1.5356112584       23.5421735378
  H        10.4771209448        9.1272432725       13.4545595205
  C        11.5094860761        7.7253183605       12.2861691605
  H         3.0658099909       -0.4734221072       37.9995753968
  H         3.5165323540       -1.8537751033       37.0881113356
  C         5.1909904278       -1.2538830577       38.2019614246
  H         4.2641821870       -0.6658226267       17.7058807574
  H         3.3235689709       -0.7024832435       16.4877327805
  C         2.7897962305       -2.2096042019       17.9328239860
  H        17.0952840395        1.9868062136       24.5269350843
  H        17.7488171570        0.5923847134       23.6945437767
  C        18.0792463394        2.4173336971       22.5143502282
  S        12.0056533897        6.1950075725       11.8058223745
  C        11.5594284826        8.8068390969       11.2786361023
  H         5.4280668070       -0.4118730343       38.8406207224
  H         5.1421296616       -2.1416267652       38.7795729139
  H         5.9495297290       -1.3116312499       37.4617405802
  H         2.6249671133       -2.4233222584       19.0317442299
  H         3.4842055885       -2.9927736452       17.5513176333
  H         1.8294782091       -2.3648676935       17.4787817340
  H        19.1291092454        2.2164362756       22.5998826318
  H        17.9961564467        3.4629701303       22.7421036411
  H        17.8273572873        2.1746393981       21.5038058761
  C        12.1654788445        6.9830840351       10.2183384458
  N        12.2431110326        8.3293008129       10.2425038695
  O        11.1653270743        9.9982312641       11.4334478421
  S        13.1490502417        6.2994228063        8.9839183867
  C        12.6296887358        9.2595171363        9.2050285579
  H        12.8489644273       10.1486814526        9.7459741569
  H        13.6028889002        9.0158493294        8.7251406811
  C        11.3638543989        9.6407913241        8.3120867941
  H        11.5082014008        9.3494493607        7.2301162102
  H        10.3580225934        9.2964413548        8.6714059346
  H        11.3182703858       10.7452224704        8.4562542674
  H        -3.5628184853       15.0105329108       16.3129013489
  C        -3.3153317549       13.9919425040       16.2215991181
  H        -4.1282587797       13.4125726677       16.5926087777
  C        -2.1422749266       13.9079295676       17.2272002465
  C        -2.8964958274       13.6006082268       14.8305523966
  C        -2.6462244793       13.5823496949       18.6157865203
  H        -1.3682158939       13.2744958119       16.8157477095
  H        -1.6511586550       14.9047653700       17.3702041262
  H        -3.3837741538       12.7739828690       14.4484878373
  H        -3.1453727575       14.4124704756       14.0884787102
  H        -1.7777724336       13.5457776601       14.7456762059
  C        -1.5620036597       13.8254957090       19.6597575785
  H        -3.1194205961       12.5934939958       18.7609938429
  H        -3.4812342447       14.2737567347       18.8406223957
  C        -2.1267805817       13.6485918252       21.0510165960
  H        -0.8100964289       13.0870423319       19.5545168860
  H        -1.1342424733       14.7613819774       19.4560330901
  C        -1.2667170157       12.8502093732       22.0196978080
  H        -3.1283026892       13.3406392054       21.0946372303
  H        -2.2799748869       14.6269870790       21.5613032640
  C         0.0010598216       13.6604457788       22.4595456695
  H        -1.7514259520       12.6367514562       22.9302927501
  H        -0.8652244447       11.9205458266       21.6211042344
  C         1.0747310214       12.8541333273       23.2440931278
  H         0.4733180375       14.0608827304       21.5444187719
  H        -0.3577561337       14.4909010719       23.0302973426
  C         1.3458536072       11.4951662750       22.5859321297
  C         0.6526400569       12.1888562147       24.5323173776
  C         2.3540578875       13.6850758588       23.4263106685
  C         1.0656553358       10.4256806619       23.4049505365
  C         1.9490753252       11.0077483784       21.4160427592
  C         0.5887551037       10.8516942224       24.6106788761
  C         0.2451730037       12.9794757762       25.6599248418
  H         2.4861532887       14.3045076753       22.5758156098
  H         2.3293269355       14.4795893976       24.2135102248
  C         3.6900363218       12.9110045987       23.7918032458
  S         1.5712543326        8.8651068495       22.7278681898
  C         1.9860030173        9.6447476051       21.2702408280
  H         2.2418967824       11.7400593204       20.6368989271
  C         0.1548782832       10.2511258181       25.7990223607
  H         0.1661940632       14.0525485724       25.4928554570
  C        -0.2025670023       12.3809061910       26.7917048808
  H         3.8511218930       12.1053074783       23.1092837737
  H         3.5457132139       12.4833705482       24.7510425048
  C         4.8913851685       13.7913714790       23.7399776234
  C         2.3932298484        8.9088062789       20.0844161457
  C        -0.2264115990       11.0390247882       26.8920792048
  H         0.1128053497        9.1551477906       26.0164090662
  C        -0.6566018989       12.7672607439       28.0216570025
  H         5.6160440599       13.4486651562       24.4603775809
  H         4.5847517578       14.7624528502       24.0665994127
  C         5.6038950214       13.8553109023       22.3889074759
  C         2.4032154149        7.4902080424       19.9279609150
  C         2.8780287620        9.7301333048       18.9437718499
  C        -0.6454051119       10.3851280138       28.1359662967
  C        -0.9008451446       11.7020267094       28.8936320548
  S        -0.8939903803       14.2496084259       28.9796666543
  H         6.2779505136       14.7624711319       22.3803224161
  H         4.7845846648       14.0762235279       21.7356243271
  C         6.4213869520       12.6156903266       22.1081847829
  N         2.0450960227        6.5988196460       20.8935699756
  C         2.6833627370        6.9245668875       18.7274676678
  C         3.2723762899        9.1151794521       17.7537297829
  H         3.0000210457       10.7661011927       19.0614110080
  C         0.5597255656        9.6013382842       28.8345602172
  C        -1.9349890661        9.6215723384       27.9437044608
  C        -1.3530820628       12.0521956447       30.1471172035
  C        -1.4784031173       13.3858897509       30.3598202909
  H         7.0002312492       12.3406322764       22.9649373533
  H         5.7085715648       11.8457357795       21.8749429358
  C         7.3117570524       12.8391445686       20.8737758438
  S         1.8959818079        5.0976423924       20.1654893155
  N         2.3665915227        5.5463853316       18.6597374533
  C         3.1191787208        7.6646499490       17.6131539531
  H         3.6284209992        9.7939696354       17.0493910768
  H         0.9879589252        8.9090080457       28.0944048675
  H         0.0743227805        8.9743271317       29.5549553991
  C         1.5955366944       10.4859054331       29.6007241411
  H        -1.7763352614        8.7735219289       27.3504792832
  H        -2.2141359649        9.1313466075       28.8824461825
  C        -3.2735162796       10.3255038303       27.4148468799
  H        -1.5672490781       11.2282651004       30.8728992077
  C        -1.7387884477       14.0691372511       31.6465953337
  H         7.9202338772       11.9402665219       20.6690292873
  H         7.8998519664       13.7605845132       20.9554574640
  C         6.4536990903       13.0165320062       19.6038218970
  C         3.2742522569        6.9431014301       16.3234826613
  H         2.0041996620       11.2374429696       28.8839720479
  H         1.0077339361       10.8716305571       30.4205875792
  C         2.7677486737        9.5755871596       30.2570314302
  H        -3.1015666468       10.7537561511       26.4502555199
  H        -3.5715524011       11.2400677164       28.0239936295
  C        -4.4806974820        9.3051039233       27.4879005864
  C        -1.7124944463       15.4622968140       31.8677104787
  C        -1.9734381369       13.2536681302       32.8496887914
  H         5.7809729414       12.1127988192       19.4731333026
  H         5.8022175995       13.9514538163       19.8109124855
  C         7.3475125505       12.9031776612       18.4137567260
  H         3.3537617497        5.9432797184       16.3100073132
  C         3.5324815573        7.3785766945       15.0182658838
  H         3.2201793421        9.0698405646       29.4204225821
  H         2.3187317401        8.8021971340       30.8447266587
  C         3.8632123038       10.4066590552       30.9414195627
  H        -4.0778876464        8.3511166436       27.2920662266
  H        -4.9421368568        9.1888375307       28.4711264259
  C        -5.4646275931        9.7223628161       26.4359353356
  N        -1.3806583624       16.3964959177       30.8897026899
  C        -1.9862254373       16.0081261447       33.0863816614
  C        -2.1930184087       13.8229170458       34.0715461744
  H        -1.9976324241       12.1657756344       32.9567695391
  H         7.7384555660       11.8646007045       18.4700733253
  H         6.8289713787       13.1718821185       17.4812765062
  H         8.1591146644       13.6533923837       18.5438067237
  S         3.7248756691        9.0150548887       14.5042786388
  C         3.5959244712        6.3699627432       13.9591771503
  H         3.8667356175       11.2490035359       30.3810434043
  H         3.6306605321       10.7435377551       31.9408332418
  C         5.1688965046        9.6402968510       31.0588414249
  H        -6.0433468876        8.8378844750       26.2768891654
  H        -4.9328303713        9.9746624941       25.5011454879
  C        -6.4044636418       10.8144366810       26.7923813582
  S        -1.4281391140       17.9101604708       31.5581374816
  N        -1.8667600237       17.4466408173       33.0766058689
  C        -2.2680256827       15.2481948536       34.2511565389
  H        -2.1090741041       13.2056826785       34.9791457961
  C         3.8316815584        8.3143506865       12.8514262394
  N         3.8589232262        6.9843351582       12.8123030083
  O         3.5892468226        5.1569674090       14.0984681554
  H         5.9423017300       10.2196284259       31.5876357102
  H         5.5937808028        9.4149493300       30.0798692262
  C         5.0618414567        8.2405109722       31.7359350331
  H        -6.8277750684       10.4904232838       27.7541598665
  H        -5.7924999134       11.6888736979       26.9426081144
  C        -7.5823119364       11.1672686343       25.8948766999
  C        -2.4680288229       15.9658451300       35.5038315981
  S         4.2093982885        9.1349409572       11.3823263931
  C         4.0490958924        6.1528338464       11.6286021828
  H         5.7991289394        8.0849934111       32.5690057739
  H         4.0400157332        8.1448226223       32.0700646516
  C         5.1383542142        7.0842825528       30.7346630986
  H        -7.2308359380       11.3346063571       24.8499606689
  H        -8.1136459383       12.0639412594       26.3175579621
  C        -8.6179300490       10.0515201167       25.9767750034
  H        -2.0911019171       16.9489031284       35.4123275178
  C        -3.1243298702       15.5937163888       36.6632928561
  H         4.5756842547        6.6781491350       10.8528108784
  H         4.6896595948        5.3142643066       11.8929745473
  C         2.6089013097        5.6931185328       11.1125344895
  H         4.7494572397        7.3814425105       29.8065163666
  H         4.5169243133        6.2214589197       31.0369251572
  C         6.5860001654        6.6441992260       30.5729718808
  H        -8.9535079076        9.8935079812       24.9500176717
  H        -8.2380339340        9.1291449536       26.2634178165
  C        -9.9035556269       10.4365007107       26.7606573984
  S        -3.7455204002       14.0625030279       37.0723734183
  C        -3.3080684884       16.6300976500       37.7633876716
  H         2.5535893259        5.5205696165       10.0348274325
  H         2.3786602298        4.8132422546       11.6631812365
  H         1.7831369526        6.3786281557       11.2649340153
  H         6.8431582469        5.7354152801       31.1166368754
  H         7.2962105466        7.3408752806       30.9567674381
  H         6.6770420066        6.5390458219       29.5433143518
  H       -10.4916181702       11.2675560488       26.3184881253
  H        -9.5205847198       10.7785178027       27.6964842756
  H       -10.5007719002        9.5677193780       26.8555845528
  C        -4.4271272449       14.7685509522       38.5129075174
  N        -4.0066043311       16.0581082479       38.7232434609
  O        -3.0113213522       17.8286520607       37.7514442910
  S        -5.3618546889       13.8884640716       39.7752045944
  C        -4.2149689508       16.8243936458       39.9439407145
  H        -4.4336394465       17.9456155716       39.7422002892
  H        -4.9652439749       16.4149085062       40.5993264462
  C        -2.8941238305       16.9212042692       40.6540324058
  H        -2.2432234646       17.5625453457       40.1071650440
  H        -2.8820455562       17.3773918803       41.6921945197
  H        -2.4567145139       15.9507214824       40.7183195571
