352
 i =    68500, time =    68500.000, E =        25.2863344689
  H        12.2220049207        5.0350376380       31.7499145404
  C        11.4586151447        5.7756509578       31.8026872548
  H        10.5439365860        5.2470990463       31.7205834887
  C        11.7548787369        6.6702366091       30.6178797548
  C        11.5927416054        6.5331782164       33.1717427005
  C        12.3930069426        6.0037295447       29.3864828377
  H        10.8846858950        7.3076729426       30.4450659577
  H        12.5411685183        7.3486195321       31.0073554157
  H        11.5258258080        5.7387889390       33.8899915048
  H        12.4830432825        7.1317751687       33.2204096546
  H        10.7851409671        7.2961298514       33.3339073200
  C        11.4489312721        5.1561688735       28.4978870407
  H        13.3109831689        5.4616802524       29.6262936584
  H        12.9088632475        6.7901189740       28.7262838790
  C        10.3668967222        5.9567103340       27.7808683530
  H        12.0980868134        4.8332757639       27.6534793959
  H        11.1475618281        4.2164110107       28.9674663698
  C         9.7274978776        5.2159856352       26.7265915624
  H        10.8070140961        6.8375100667       27.2581990398
  H         9.6466048414        6.3163832567       28.4471727985
  C         8.4320194005        5.8763247202       26.2426425510
  H        10.4187816976        5.0785637524       25.9059640872
  H         9.4856457109        4.2755400703       27.0798236443
  C         7.4000280557        5.0235994500       25.5511277582
  H         7.9578215563        6.3042966854       27.1863463715
  H         8.7612386055        6.6528357133       25.6064572897
  C         7.1667004668        3.6456074278       26.2718556847
  C         7.9671751983        4.3593890622       24.3539096663
  C         6.1127771578        5.5759525101       25.1957068589
  C         7.5358892856        2.5784382655       25.4316043853
  C         6.6627910645        3.2302345342       27.5062779758
  C         8.0779112007        3.0346062751       24.2018711775
  C         8.4524522481        5.0772967833       23.2493316670
  H         5.7189054953        4.9852499116       24.4305142944
  H         6.2814884512        6.4881966833       24.6220030966
  C         5.0894741317        5.8439256948       26.2926445585
  S         6.9570675480        1.0773766558       26.1003579855
  C         6.5070692394        1.8844566768       27.6124628377
  H         6.4121982692        3.9439302181       28.2474895679
  C         8.4556439334        2.4812862521       23.0395599697
  H         8.4048091772        6.1325943853       23.2546002782
  C         8.9338374596        4.5105079038       22.1289579269
  H         5.0230466700        4.8432171732       26.7096465566
  H         5.3399715759        6.4640466294       27.2046676633
  C         3.7662291836        6.1795782149       25.6666979885
  C         6.0370290968        1.2110187135       28.9272773916
  C         8.8856447226        3.2031328490       21.9583191806
  H         8.4765467043        1.3649965365       22.8783410125
  C         9.3051035302        4.9184338072       20.9037248001
  H         3.6114866087        5.4883014977       24.9035679226
  H         3.8648931213        7.0549850904       25.1712865452
  C         2.6370445984        6.3159378862       26.6810869684
  C         6.1083542927       -0.1908599015       29.2240460668
  C         5.6971737030        2.0328441018       30.0645102896
  C         9.3639633469        2.4807975744       20.6944864725
  C         9.6620711329        3.8586309821       20.0879947513
  S         9.4300002307        6.4499258209       20.0865764867
  H         1.6923692505        6.8764323670       26.4165884744
  H         3.1030309947        6.9307189742       27.3684161393
  C         2.1191886268        4.9961697698       27.2085973666
  N         6.4005251281       -1.1987306084       28.2958372765
  C         5.8215517109       -0.6728182049       30.4585952715
  C         5.5716976879        1.5075769547       31.3245449791
  H         5.6943089114        3.1197457829       29.9043197876
  C         8.1580646158        1.7737485407       20.0566674086
  C        10.6126095211        1.4671801229       20.9174749174
  C         9.9786327890        4.2804639774       18.8242455210
  C         9.8630178467        5.6631879172       18.6231032754
  H         1.1189837233        4.7976574596       26.7254420567
  H         2.6983112236        4.0950375828       26.8393414891
  C         2.1318089358        4.9560445876       28.7312562477
  S         6.5754030295       -2.5845615294       29.0479347554
  N         6.0195292500       -2.0408283862       30.4728370410
  C         5.4306469276        0.0878890090       31.5610447206
  H         5.3733576774        2.2187076451       32.1404742709
  H         7.5375092054        1.4455950374       20.9023456774
  H         8.3731046429        0.9042733286       19.4528161069
  C         7.2293551227        2.7343617476       19.2162351100
  H        10.8311365914        0.6361587635       20.1952179859
  H        10.4824691414        0.9993386453       21.8661290186
  C        11.9529987920        2.1645028296       21.0899393194
  H        10.0923721868        3.5352043607       17.9955694169
  C        10.2493763577        6.3842215617       17.3463537971
  H         1.7104664836        3.9357875115       28.8436206026
  H         1.4939119954        5.7059937070       29.1953785665
  C         3.5451494237        5.1043957039       29.4199829691
  C         5.2986582725       -0.5509659382       32.8189222181
  H         7.6221238222        3.0621328188       18.2414550108
  H         7.2460801589        3.6873107383       19.6888808345
  C         5.8943875510        2.0679463114       19.0730378864
  H        11.7468140889        2.9666136205       21.7944294297
  H        12.4172400400        2.6896695727       20.2899923186
  C        13.0643041904        1.1815929144       21.6122139839
  C        10.4897469391        7.7231213839       17.1127444403
  C        10.3587117443        5.5203308794       16.0983816282
  H         4.2693468032        4.5741693596       28.9045101649
  H         3.9513218405        6.1626339026       29.4380785287
  C         3.2788947432        4.8739567034       30.9098714131
  H         5.3037765073       -1.6683839837       32.7757550811
  C         5.1237263918       -0.0103728853       34.0802668626
  H         5.0864997089        2.8410475794       19.0789889862
  H         5.5817412634        1.2469035679       19.7848597210
  C         5.7926684065        1.2717893952       17.7295672475
  H        12.7080188133        0.6303500675       22.4206093010
  H        13.3048564575        0.4401302014       20.8858394759
  C        14.3642689632        1.9261666311       21.8735371968
  N        10.3069750915        8.7414345246       18.0847353215
  C        10.8472006791        8.2733418029       15.9078493780
  C        10.7791291982        6.0272667189       14.8360467237
  H        10.2436246649        4.4248127195       16.1209675742
  H         3.4934409366        5.7335119498       31.4179055120
  H         2.2184196464        4.6103240348       31.0477179701
  H         3.8515405510        4.0197614490       31.2529658328
  S         4.8103592561        1.5964990528       34.5775874340
  C         5.1783720150       -0.9766119503       35.2125770767
  H         6.2251126772        1.9018546853       16.9389087241
  H         6.4439687279        0.3951922862       17.6644709198
  C         4.3576243658        0.7434789369       17.3023805726
  H        14.1614794668        2.9299575176       22.2717670762
  H        14.8355646406        2.0542673564       20.8997128403
  C        15.4593697217        1.2163424864       22.7343793235
  S        10.3353900602       10.2276772399       17.3477840849
  N        10.8374977397        9.6879736491       15.9381166534
  C        11.0534651141        7.5356257664       14.7118014202
  H        10.9385227984        5.2270051075       14.0106986531
  C         4.7537340854        0.9508331623       36.2467107104
  N         4.9692699734       -0.4043329111       36.3582315376
  O         5.4004352789       -2.1511469549       35.0667631979
  H         4.3593909039        0.3572621473       16.2780190685
  H         3.7325952118        1.6270809204       17.2865072632
  C         3.7283119978       -0.4186753953       18.0433685540
  H        14.9824450462        0.5989454837       23.5723591076
  H        15.9629224387        0.5326130297       22.0952732554
  C        16.3714249157        2.2689933585       23.4126442616
  C        11.4000627436        8.2567733131       13.5858426162
  S         4.3808218109        1.8750215621       37.6673632701
  C         5.1259649047       -1.0724442340       37.6061160646
  H         4.3062868718       -0.7423321394       18.9380696023
  H         2.8072394499       -0.0799147318       18.4578908863
  C         3.5159568661       -1.6882839978       17.2552138421
  H        15.9043506965        2.8882452784       24.1399131081
  H        16.8108344785        2.9759253470       22.6869048369
  C        17.6282830073        1.6414617507       24.0285464652
  H        11.2091871638        9.2880320436       13.5603672692
  C        11.9388155211        7.8835713687       12.3645540684
  H         4.4759900705       -0.6190014227       38.4151688004
  H         4.6639093450       -2.0214333198       37.5014881940
  C         6.6128155143       -1.1422059629       37.9932226120
  H         3.7972422856       -2.4641736837       17.8815621018
  H         4.1332706865       -1.6510262743       16.3871423792
  C         2.0795018833       -2.0505296862       16.8732927953
  H        18.0109237981        2.2783563179       24.7603961569
  H        17.4652943816        0.6908173215       24.6132198565
  C        18.8051831781        1.4494278138       23.1383226924
  S        12.5735231650        6.3090925007       11.9954919147
  C        12.0347760356        8.9173947777       11.3022380925
  H         6.8042138966       -1.8808856968       38.7837564748
  H         7.2952365965       -1.4250028499       37.1747545809
  H         6.8713777744       -0.1770595606       38.4493268377
  H         1.6091863183       -1.5169686602       16.0436554533
  H         1.4967756609       -1.7239572116       17.7342019347
  H         2.0279507440       -3.1179459571       16.6447962801
  H        19.3034602094        2.3747345161       22.8878261966
  H        18.4423301081        1.0485152664       22.1734797735
  H        19.6019455645        0.8312821731       23.5428597650
  C        12.7549936964        6.9718503420       10.3710602108
  N        12.5883611855        8.3288544414       10.2240792754
  O        11.5970208460       10.0857005949       11.3327269191
  S        13.6522066667        6.2231574511        9.0700785126
  C        12.6448094143        9.0992432952        8.9614285332
  H        12.7243895812       10.1742126978        9.1914934734
  H        13.5757179430        8.8993613173        8.3683334308
  C        11.3730689344        8.8756790437        8.2263983857
  H        11.2590826937        7.9270791025        7.6349460537
  H        10.5191107578        8.8604843179        8.8501848254
  H        11.0620562343        9.6161527738        7.5875380559
  H        -2.7242753177       14.8103819237       16.0583713827
  C        -2.6719011244       13.7158725729       16.1648281815
  H        -3.6210933117       13.4185436397       16.5327928123
  C        -1.7008900869       13.4088288868       17.3172489148
  C        -2.5367226833       13.1496509580       14.7460833893
  C        -2.4004527323       13.5754614840       18.6868385588
  H        -1.3930603315       12.3583457228       17.2582571994
  H        -0.8820576252       14.0171269504       17.1401176689
  H        -1.5397275162       12.8978729436       14.4936994931
  H        -3.1072521875       12.2657159998       14.6176939016
  H        -3.0387275273       13.8757229123       14.0550365478
  C        -1.2575262082       13.3188195699       19.6703604827
  H        -3.0870270254       12.7389918159       18.7967288411
  H        -2.8800705203       14.6061686833       18.7665650464
  C        -1.7620729416       13.3455511729       21.0924749424
  H        -0.7082329701       12.4261704999       19.3052135011
  H        -0.4148274258       14.0398853745       19.4094613535
  C        -0.7546410286       12.5867221181       21.9884906583
  H        -2.7422267288       12.8081944241       21.1132148058
  H        -1.9662610972       14.3588585733       21.4551871505
  C         0.3508970276       13.5740084843       22.3784850017
  H        -1.3662407072       12.4014391258       22.9131610167
  H        -0.4974719021       11.6460265154       21.5051917739
  C         1.5232151892       12.8524454697       23.0701298365
  H         0.6136816405       14.0526982722       21.4602047799
  H        -0.0427586345       14.3112595581       23.0360066425
  C         1.8693853803       11.4580408570       22.4384763984
  C         1.1265724403       12.0521767018       24.3955710731
  C         2.7600262852       13.7769284237       23.3704910918
  C         1.5543225248       10.3393064619       23.1999218529
  C         2.4301233642       11.0390888539       21.2295331556
  C         1.0440169535       10.6938724985       24.4271074046
  C         0.7184604503       12.7634653283       25.5456953122
  H         3.0769912372       14.0234503848       22.4028145299
  H         2.4080346890       14.6245865520       23.9004130257
  C         3.9208588988       13.1250066072       24.0525540221
  S         1.9867025587        8.8430274909       22.4386665653
  C         2.5400137754        9.6638484772       21.0413630509
  H         2.6474210752       11.8391906941       20.4753056384
  C         0.7011096302       10.0146013504       25.6019725660
  H         0.5648709522       13.8041635071       25.5771757330
  C         0.2467121283       12.0525444881       26.6613033260
  H         4.3051340046       12.1705613282       23.8231735896
  H         3.6693724764       13.0844098846       25.1411035218
  C         5.1061348476       14.1021822908       23.9357680224
  C         3.0190789613        8.9479290335       19.7823042968
  C         0.2407239455       10.7271608871       26.7364357961
  H         0.7719170436        8.8972599579       25.5359357773
  C        -0.2018256887       12.3283570441       27.9333510665
  H         5.8695891929       13.9164580387       24.7147957917
  H         4.7310213361       15.0128669055       24.1944247292
  C         5.9237010906       14.3063045625       22.7057418418
  C         3.0334248812        7.5394316642       19.6062642825
  C         3.2862882315        9.7497421599       18.5504302653
  C        -0.2833778836        9.9417410329       27.9527111627
  C        -0.5287548189       11.2540825310       28.7124389213
  S        -0.3810909761       13.8458023605       28.7834443576
  H         6.6972095306       15.0858149401       22.8379391531
  H         5.1588660803       14.6532818082       21.9578476166
  C         6.6921009986       13.0175125532       22.3374130842
  N         2.7233743131        6.5904571002       20.5822219753
  C         3.1774767153        6.9016666150       18.3416759012
  C         3.4949162455        9.0688730213       17.3459959137
  H         3.4169902732       10.7888726657       18.5718937111
  C         0.7698876707        9.1360943568       28.7338113647
  C        -1.5774007387        9.0930799846       27.8170001875
  C        -0.9266032059       11.6041265271       30.0040232395
  C        -0.7704375790       12.9582750586       30.2188341003
  H         7.4047374745       12.8717747711       23.2330395846
  H         6.0767915309       12.1587796334       22.2692483367
  C         7.3963377261       13.3033883718       21.0306986295
  S         2.7735140157        5.1062199119       19.9037246729
  N         3.1806796938        5.5361650775       18.4200362377
  C         3.4947184713        7.6210621438       17.1600667992
  H         3.7297843353        9.6449682167       16.4939055597
  H         1.1156566629        8.3184012324       28.1765245101
  H         0.1872885977        8.6884478939       29.5520671621
  C         2.0018617190        9.9014676350       29.3573598961
  H        -1.3306514788        8.2199405833       27.1844446967
  H        -1.9443820130        8.8143605002       28.8246565123
  C        -2.7232049268        9.9364861845       27.3334236870
  H        -1.1106512770       10.8510872237       30.7614274716
  C        -1.1558650232       13.6811276190       31.5162120781
  H         8.3045740352       12.6106410236       20.9520209676
  H         8.0537110211       14.1803292922       21.1559268870
  C         6.6324339173       13.4541308671       19.7346706781
  C         3.6705174969        7.0374860502       15.8394017027
  H         2.4329825086       10.4462959701       28.4880346543
  H         1.6140746487       10.6173752992       30.1111061880
  C         3.0482074269        9.0194899797       30.0503514277
  H        -2.5581182882       10.5170170126       26.4389883133
  H        -2.8872935912       10.6708533580       28.1030717638
  C        -4.0548134423        9.1720094582       27.0537220467
  C        -1.3337873721       15.0636148590       31.6811254257
  C        -1.2098303244       12.8900538765       32.7588890522
  H         6.0083198734       12.6012715982       19.4958068199
  H         5.9580429523       14.3250913728       19.8607086616
  C         7.6595127525       13.5995406010       18.6493185101
  H         3.4388743881        5.9982910113       15.8305801948
  C         4.1672939110        7.5587350128       14.6246850385
  H         3.4617340798        8.3004458548       29.3394584992
  H         2.6062763222        8.4258717786       30.8774975202
  C         4.2029828704        9.9598100248       30.5859783846
  H        -3.9506742072        8.9599534852       25.9613718026
  H        -4.0637753978        8.2391142921       27.6328720203
  C        -5.3471611750        9.9552425652       27.3821508732
  N        -1.1436284143       15.9913484469       30.7013450967
  C        -1.6274739780       15.6866237708       32.8761245322
  C        -1.5499343275       13.5636301964       33.9656631203
  H        -0.9022801718       11.7916949468       32.8381606516
  H         8.4512308955       12.8664527312       18.7480529350
  H         7.1711958403       13.4740438862       17.6590541460
  H         8.0862185585       14.6267590838       18.7298172706
  S         4.5006279990        9.1767950535       14.1654403548
  C         4.1986654460        6.5799043408       13.4922682003
  H         4.2936270372       10.8624605388       29.9242460977
  H         3.9503868548       10.2181617530       31.6316778127
  C         5.5709304947        9.3378141836       30.3596516502
  H        -5.2421812954       10.9978816749       27.0128081671
  H        -5.5963814740        9.9933387655       28.4439503293
  C        -6.4473330482        9.3402177601       26.6119060368
  S        -1.4725296917       17.5077803851       31.1957515640
  N        -1.7901263133       17.0793810934       32.7470077100
  C        -1.8098562373       15.0156977228       34.0880876353
  H        -1.5471635389       12.9417531131       34.8767874445
  C         4.8055575745        8.5247925111       12.5426316879
  N         4.5785191934        7.1994996231       12.3760538154
  O         4.0398768486        5.3439020898       13.6131933759
  H         6.2607854071       10.1441817984       30.2109890861
  H         5.4191982098        8.8610997741       29.3601112097
  C         6.0170409976        8.1499599157       31.2656170958
  H        -6.2507743097        8.3529622066       26.1505835956
  H        -7.1566129093        9.0791005170       27.4302785468
  C        -7.1135942993       10.1685772871       25.5721103593
  C        -2.1667580943       15.7147329167       35.2607885564
  S         5.1529445565        9.5029039660       11.2295856346
  C         4.6997691768        6.4892494558       11.1131514990
  H         6.2265279837        8.5305019597       32.2950346966
  H         5.1907813681        7.4796180216       31.3495809211
  C         7.1871803200        7.3655010133       30.6203171901
  H        -6.4720807995       10.7695797038       24.8841249370
  H        -7.6431605571       10.9864240530       26.0352633400
  C        -8.1378012972        9.3799136648       24.8571913331
  H        -1.8151271590       16.7678866665       35.2242119695
  C        -2.7286076786       15.3717898943       36.4949117505
  H         5.0812673243        7.1194594510       10.2667223822
  H         5.2219085301        5.5125584394       11.1137996802
  C         3.2277708821        6.2317282608       10.5744788306
  H         7.8386093795        7.0954577869       31.4522348393
  H         7.7781066417        8.0402233775       30.0504131656
  C         6.8855624170        6.0956836629       29.8874679966
  H        -8.4078854053       10.1085293258       24.0218507523
  H        -7.8400081362        8.3650856519       24.4785139977
  C        -9.3298236135        9.0666758205       25.6667198647
  S        -3.3234849093       13.8023639899       36.9010234382
  C        -2.7401378739       16.4264847195       37.5473893324
  H         3.0818171695        6.6983322524        9.5753421546
  H         3.0039111828        5.1759375675       10.6116363642
  H         2.5293890650        6.7988741713       11.2204476174
  H         7.7996232470        5.6235914468       29.6523517734
  H         6.2981351666        6.3915840274       28.9881012468
  H         6.1636916815        5.4092871445       30.4494975844
  H       -10.2612538901        8.9442375799       25.1264396547
  H        -9.4958209377        9.8276146126       26.4424738402
  H        -9.2497071829        8.1507082735       26.1562494597
  C        -3.6125067532       14.5604839507       38.4638149515
  N        -3.3103222255       15.8725068746       38.5785616130
  O        -2.3938029791       17.6022412574       37.3487025754
  S        -4.2557846901       13.6610791033       39.8112741184
  C        -3.3968145607       16.6423542952       39.8742571855
  H        -3.7957348595       17.6018985844       39.6633602577
  H        -4.0924071245       16.1613678212       40.5783912115
  C        -2.0616414393       16.6719941739       40.6612382792
  H        -2.0957366537       17.1796481472       41.6188757176
  H        -1.5873546956       15.7670181095       40.6781331558
  H        -1.3170813340       17.2925115241       40.1745342682
