352
 i =    29500, time =    29500.000, E =        24.9730167158
  H        11.3461411453        7.1415230529       32.2680955309
  C        11.2219184245        6.0942007120       32.4741190864
  H        12.1780544305        5.5176646502       32.3379868462
  C        10.1252496351        5.4816364024       31.5168533206
  C        10.7854973269        5.9724629381       33.9492397733
  C        10.2982110781        6.0215204651       30.1249546475
  H        10.0927659783        4.3513874636       31.4998820533
  H         9.1478309102        5.8686022357       31.8549135347
  H        10.4893626869        4.9993383112       34.2186908442
  H        11.5970843502        6.3812104486       34.5952178975
  H         9.9320624163        6.5922502505       34.1877434323
  C        10.2304648199        4.9494944189       28.9668547083
  H        11.1911684239        6.6148123694       30.0953865792
  H         9.4729080386        6.7429364593       29.9068883123
  C        10.6910468516        5.5611030460       27.5476093811
  H        11.0603901055        4.2353120634       29.1657568119
  H         9.2301675168        4.5641677572       28.9762723962
  C         9.8943240701        5.0635213939       26.3974353202
  H        11.7702864442        5.4536204197       27.5225146143
  H        10.6533748914        6.6463025845       27.5217832147
  C         8.5450218383        5.8202943925       26.1634149715
  H        10.3944462066        5.0455622102       25.4493179976
  H         9.6335332307        3.9907206452       26.6107633174
  C         7.3866621707        5.1511017894       25.3887036523
  H         8.1105653614        5.9862704829       27.1727975748
  H         8.6107772572        6.7950080946       25.7405654173
  C         7.0005216747        3.7911142861       25.9830611578
  C         7.8096895913        4.5373236310       24.1350338900
  C         6.1395348179        6.0450858025       25.2447363727
  C         7.2433407861        2.7111729215       25.1854554430
  C         6.5490385311        3.4018475169       27.2565454378
  C         7.7948581981        3.1592608820       23.9888395006
  C         8.2771293968        5.1987624576       23.0671999961
  H         6.2879416478        6.8320941575       24.5124091025
  H         5.9728490401        6.4929592530       26.2546918519
  C         4.7998860075        5.3676299330       24.6866928177
  S         6.9691734747        1.2361224916       26.0054811172
  C         6.3986306515        2.0140850622       27.4306666106
  H         6.3511495943        4.1678903447       27.9705924187
  C         8.0533636411        2.5529367937       22.7647931515
  H         8.2510331887        6.2630833467       23.1364933062
  C         8.6403044950        4.6022704476       21.8544597730
  H         4.9831851405        5.0240491935       23.6800952683
  H         4.5168740340        4.4815821292       25.3180305962
  C         3.6541240079        6.2931667384       24.5724762717
  C         5.9461051846        1.3040973713       28.6900492459
  C         8.5585066673        3.2560867398       21.6774891618
  H         7.9109695525        1.4867427327       22.6815004812
  C         9.0859764163        4.9927690876       20.6467788114
  H         2.9292944875        5.9212582300       23.8939704032
  H         3.9261550096        7.2716101910       24.1599104302
  C         2.9405662466        6.5499446360       25.8792022819
  C         5.9748895714       -0.0535036717       28.9277631636
  C         5.5678461755        2.2065861007       29.8440025653
  C         9.0370215618        2.5884503247       20.4379072255
  C         9.2247378909        3.9110736238       19.7482723766
  S         9.4569820658        6.5299302921       19.8101094058
  H         2.3616441996        7.3829249461       25.7401901092
  H         3.6900854208        6.8716021452       26.5946389235
  C         2.0975836087        5.3417668967       26.3413358647
  N         6.3745454945       -1.0045070139       27.9567209490
  C         5.7072524291       -0.5927025568       30.1755218539
  C         5.2485148704        1.6864172299       31.0870921803
  H         5.4304950442        3.2276062684       29.6218854032
  C         7.8747951626        1.8987362614       19.7262078900
  C        10.3553692443        1.7102089283       20.5524512532
  C         9.5108839995        4.4081456633       18.4290841298
  C         9.6305309732        5.7494392780       18.3639840759
  H         1.4486122186        5.0268406707       25.6408191386
  H         2.7055145304        4.4654507027       26.5415908335
  C         1.3071033800        5.7017640403       27.6068508745
  S         6.3547893322       -2.4230717748       28.6517076303
  N         5.8813328995       -1.9849075255       30.1540870290
  C         5.4587101226        0.2434104285       31.2985992279
  H         4.8759082057        2.4156891979       31.7678987574
  H         7.6016412527        1.1467376764       20.4445436430
  H         8.1954774862        1.3428217119       18.8678087239
  C         6.6771587187        2.7408308459       19.3315533174
  H        10.5154576595        1.4351585297       19.5132683353
  H        10.2552823417        0.8791304289       21.2222691383
  C        11.6173264013        2.4499961605       21.0866536165
  H         9.6391595452        3.6473079491       17.6879449501
  C         9.9469241245        6.4800769508       17.1297057647
  H         0.4986860158        5.0025411081       27.7290594800
  H         0.7949222468        6.6572095695       27.3573068800
  C         2.1655373128        5.8363743964       28.8339407156
  C         5.1547059799       -0.3788176348       32.5803167030
  H         6.9096478751        3.5885107748       18.6176395089
  H         6.2105048909        3.1988751532       20.2168465162
  C         5.5965235602        1.7785760412       18.7676160146
  H        11.3993904993        2.9142223305       22.0423947010
  H        11.9035331995        3.2806360960       20.3957490137
  C        12.7680818671        1.5219194718       21.2284672718
  C        10.0932741447        7.8536819076       17.0556392287
  C        10.1987513999        5.6939149045       15.9217196191
  H         2.9765131233        5.1313391511       28.8617953826
  H         2.6728772697        6.8281821269       28.7047551502
  C         1.4777472740        5.8716120327       30.1679808817
  H         5.3334946384       -1.4296808111       32.6270850191
  C         4.7979596800        0.1175311257       33.8542850053
  H         5.1838594433        1.1248854138       19.4994002190
  H         6.0421862802        1.1253825220       18.1016906388
  C         4.3926596470        2.5222175339       18.0996136429
  H        12.5789479085        0.9562972648       22.1075918551
  H        12.7346758181        0.6703419225       20.5233577529
  C        14.1982462137        2.2459335769       21.2340273771
  N         9.9257302297        8.7364318177       18.1143314438
  C        10.3787182741        8.5410462092       15.8912387344
  C        10.4151016581        6.3719047022       14.6986988931
  H        10.1789034166        4.5915906036       15.9330607565
  H         2.1425291293        5.7724393765       31.0718853029
  H         1.0569980593        6.7775607745       30.3587192500
  H         0.6125495356        5.2634867889       30.1104325081
  S         4.4689666096        1.7500640705       34.2912843823
  C         4.7639812989       -0.8938994526       34.9649898271
  H         4.2510635691        3.5341040901       18.5271383322
  H         4.6960115546        2.6476926957       17.0810405402
  C         3.0865186166        1.7816615326       18.2172938755
  H        14.2044333533        2.9734365101       20.3593227427
  H        14.8150460251        1.4087640267       20.9376270667
  C        14.6298780320        2.8777273677       22.5644172750
  S        10.1173733852       10.2530289555       17.6529090686
  N        10.4665500127        9.9189939909       16.0870050188
  C        10.5301892039        7.8347672500       14.6872473789
  H        10.5863253089        5.8021170693       13.7577540037
  C         4.1648185716        1.0887333922       35.9436321746
  N         4.2513511402       -0.2415959390       36.0090760459
  O         4.8894275048       -2.0828441182       34.7930410403
  H         2.2320310141        2.3993189753       17.8444947917
  H         2.8299450580        1.7264874273       19.1835476665
  C         3.1710990066        0.4466617552       17.4891280157
  H        15.3732094909        3.6080175363       22.3223264467
  H        13.7510054952        3.4947060261       22.9199926365
  C        14.9366518306        1.9856097991       23.7222037492
  C        10.8906637966        8.4931850140       13.5367372160
  S         3.8716632856        2.0849224899       37.4249930398
  C         4.1937424219       -1.0385169006       37.2870207390
  H         2.4666087560        0.3065265520       16.7085878306
  H         4.1796904883        0.4151968970       17.0213200085
  C         3.0487674962       -0.8506872584       18.4696866024
  H        14.6353093874        0.9636634355       23.4785239127
  H        14.1371714929        2.1429580934       24.4645680161
  C        16.3290511355        2.0635598940       24.1350398189
  H        10.7084993718        9.5461531187       13.6046025922
  C        11.4792053118        8.1968990613       12.3118668644
  H         3.5337778163       -0.5150414516       37.9631633481
  H         3.7894495971       -2.0590558929       37.0036813175
  C         5.5838056354       -0.9998353848       37.9097667503
  H         3.7320155987       -0.7382100387       19.3330562909
  H         3.2723793932       -1.7806559211       18.0305105503
  C         1.6972608263       -0.9186267622       19.1590287273
  H        16.4565234625        2.8909411384       24.8504919890
  H        16.7527209032        1.2487938962       24.7216081420
  C        17.2678581657        2.0305247763       22.8877891025
  S        12.1431812774        6.6906887657       11.8127461703
  C        11.6116867553        9.3438491121       11.3464931523
  H         6.3341718044       -1.3372119067       37.2039937475
  H         5.8006193525        0.0851462080       38.1548776957
  H         5.7807153586       -1.6461234535       38.7828076878
  H         1.9814797467       -1.4657042078       20.0852075269
  H         1.0425226437       -1.4564786687       18.5220916203
  H         1.3181640756        0.0108207236       19.5907159652
  H        17.2478145891        2.9595129097       22.3520042851
  H        17.0110935692        1.1954662464       22.2689140007
  H        18.3157020824        1.8216257106       23.2004259185
  C        12.5404859660        7.5676953165       10.3092649887
  N        12.1990372035        8.8379862902       10.2792898786
  O        11.3197660552       10.5074287387       11.5168422173
  S        12.7697657940        6.7471150615        8.7054401411
  C        12.2256368511        9.7090630478        9.0599713626
  H        12.3877886878       10.7710179971        9.2896094448
  H        13.1892192340        9.2607508872        8.6068480292
  C        11.0197467930        9.4332942443        8.1567899940
  H        11.3166843724        9.8536354317        7.1784101844
  H        10.7750029881        8.3428734504        8.0889008469
  H        10.1550610017        9.9776796046        8.5070374684
  H        -2.5396218631       14.9658485417       16.3599327824
  C        -3.0721902115       13.9865912108       16.4184278273
  H        -4.0647340534       14.1856552653       16.6780119882
  C        -2.4467691641       13.0932223320       17.5064807664
  C        -3.0671287855       13.3391135366       15.0501637617
  C        -2.3763691993       13.7973258419       18.8872880260
  H        -3.0281840411       12.1692764011       17.4181059785
  H        -1.4409853249       12.8249490244       17.2631037668
  H        -3.3802716616       12.2996516074       15.0990170930
  H        -3.7732003255       13.8108837028       14.3424525184
  H        -2.0703374626       13.3130785106       14.7083142299
  C        -1.6738383952       12.9610418461       19.9600092472
  H        -3.3358149122       14.1352099495       19.2270507599
  H        -1.6695233788       14.5834488508       18.6944128872
  C        -2.1154448434       13.3802496764       21.3411375048
  H        -2.0034803081       11.9678907534       19.6621180265
  H        -0.5944707658       13.0352337222       19.7557836965
  C        -1.2133949487       12.6387181755       22.2878464268
  H        -3.1347925283       13.0355969578       21.3482979721
  H        -2.0619416621       14.4858108027       21.4231326861
  C         0.0952818182       13.5425647769       22.5635468820
  H        -1.8371253702       12.5541755052       23.1967708787
  H        -1.0309973399       11.6286408137       21.9573868457
  C         1.1073857615       12.6898124089       23.3801012699
  H         0.5948752934       14.0599921234       21.7118657889
  H        -0.3155917436       14.3647279402       23.1386065934
  C         1.4710584958       11.3716509100       22.6912262559
  C         0.5948782245       11.9098373965       24.5222631068
  C         2.2776635912       13.6453509162       23.7365890763
  C         1.1106312164       10.2178150720       23.4140763888
  C         2.1085800739       11.0132386692       21.4702836936
  C         0.5246502295       10.5651240028       24.6329562177
  C         0.2277761496       12.6528258556       25.6436283227
  H         2.4302775477       14.2165123704       22.8529994225
  H         1.9630834200       14.3464250417       24.4863026025
  C         3.5442112112       12.8365701929       24.0327420999
  S         1.4146477250        8.7679955636       22.5558010156
  C         2.1318199808        9.7131828994       21.2386833567
  H         2.4884703300       11.7760618143       20.8210934159
  C         0.1057068588       10.0169578303       25.8391491706
  H         0.1921548441       13.7326104511       25.6529630889
  C        -0.2017167447       12.0830811135       26.8258412009
  H         3.7337606500       11.9311156325       23.4599541834
  H         3.4651440362       12.5685274515       25.0464707173
  C         4.8100365685       13.6552811637       23.9723536751
  C         2.6246700197        9.0742311802       19.9374604569
  C        -0.1976190696       10.7492649489       26.9590894884
  H         0.0714618200        8.9785985620       25.9569890254
  C        -0.6382449879       12.5328430205       28.0748724551
  H         5.5685516123       13.1919348668       24.6113281887
  H         4.5480039462       14.6011361527       24.4140603500
  C         5.3419393846       13.9057395525       22.5355394917
  C         2.5578190816        7.7320628941       19.5976076929
  C         3.0823694650        9.9741709706       18.7641145031
  C        -0.4564145379       10.1245453125       28.2469600177
  C        -0.7905640247       11.4644440068       28.8982875292
  S        -0.9248324024       14.1008050857       28.7564863851
  H         5.8376551042       14.8382557455       22.7067785874
  H         4.6133597532       14.0026873176       21.7901220222
  C         6.3652460984       12.9552171503       22.0473031415
  N         2.1286338130        6.7627439847       20.5817171680
  C         2.8519565601        7.2281499204       18.3895499971
  C         3.3923600552        9.3734938898       17.5279742383
  H         3.2813941650       11.0429858855       18.8748276962
  C         0.7409014763        9.4426909906       29.0773529098
  C        -1.7694843862        9.2976387506       28.1300291266
  C        -1.0571045621       11.9956311377       30.2048805752
  C        -1.0635019148       13.3627719550       30.2972043342
  H         6.8409900107       12.5374479780       22.9026451588
  H         5.8806603018       12.0768090220       21.5051049701
  C         7.4701843951       13.5667022785       21.2195911698
  S         2.0776900910        5.3056555918       19.7994697015
  N         2.7230304002        5.8434421454       18.3224479192
  C         3.2838750596        7.9401094770       17.2383690441
  H         3.7031310647       10.0406921413       16.7185165710
  H         1.2389920731        8.6247480142       28.5538077153
  H         0.3730960385        9.1084265937       30.0116638107
  C         1.8114598347       10.4481320266       29.3776964314
  H        -1.4280821447        8.3557943785       27.6105543902
  H        -2.0547519434        9.0051842252       29.1500410384
  C        -3.0655358351        9.9594167606       27.6462141579
  H        -1.0445610278       11.3287503413       31.1070683556
  C        -1.4472238800       14.1448030121       31.5313898226
  H         8.2712122782       12.8730136475       21.0009155285
  H         7.8693897835       14.2846688059       21.8209928321
  C         6.8916843160       14.3234016888       19.9281034901
  C         3.5001325752        7.2781125307       15.9482244374
  H         1.9837132994       11.0322812522       28.4950917545
  H         1.4786181267       11.2024657789       30.0500616726
  C         2.9960732333        9.7116405441       30.0039491295
  H        -2.8364076845       10.5866000588       26.7651446484
  H        -3.4292930214       10.6828529063       28.3593035529
  C        -4.1873768086        8.9370312952       27.3092291078
  C        -1.5648161648       15.5477254528       31.5791067916
  C        -1.5533982614       13.4172052920       32.8141691320
  H         6.1736319934       14.9898111004       20.2701048563
  H         7.7249947152       14.8380999722       19.4950774489
  C         6.3132379638       13.3329499797       18.9301443731
  H         3.4728359170        6.1674200985       15.9036162385
  C         3.7675774731        7.7614128928       14.6809136171
  H         3.1837866756        8.8346513712       29.3681258433
  H         2.7444381184        9.2089063824       30.9437724249
  C         4.2490626466       10.4897847107       30.4317789855
  H        -3.9912796612        8.3981370143       26.4169545975
  H        -4.2243889454        8.1656722124       28.0462724910
  C        -5.6217092144        9.3970987069       27.1213104891
  N        -1.4985447073       16.3958211141       30.5341263451
  C        -1.8818978280       16.1233267898       32.7900209035
  C        -1.7430649461       14.0660807354       34.0117715363
  H        -1.3638277805       12.3757966127       32.7870042120
  H         6.9825703040       12.5116754164       18.6835682263
  H         5.3818112724       12.9407976442       19.2030691084
  H         6.1244769011       13.8457165605       17.9576670143
  S         4.0901500543        9.3584502357       14.3801118647
  C         3.7665727634        6.8760518343       13.4973070198
  H         4.2322136464       11.4595224745       29.9517749913
  H         4.1440153146       10.6698503287       31.5053066248
  C         5.5387554642        9.7561164010       30.1162233576
  H        -5.9263283794       10.0897549838       27.8451324289
  H        -6.2581713959        8.5256849466       27.2191145207
  C        -5.9301049795       10.0388367055       25.7496834245
  S        -1.4406195443       17.9217876132       31.0949921579
  N        -1.9571916093       17.5336748936       32.6321707465
  C        -1.9988893852       15.4619367286       34.0049146536
  H        -1.5232065662       13.5653009461       34.9279207254
  C         4.2376651829        8.9349604628       12.6624359861
  N         4.0480701107        7.6594670047       12.4297657715
  O         3.5947619701        5.7033193352       13.4936735725
  H         6.3148806456       10.3954196047       30.5094620334
  H         5.7354788931        9.7003332714       29.0554742710
  C         5.6846112850        8.4550887910       30.8539414477
  H        -5.1794664342       10.7886781518       25.5236131117
  H        -5.7820608574        9.2335583705       24.9739457352
  C        -7.3254770741       10.6552659710       25.8374645921
  C        -2.3650241421       16.2168380202       35.1293981531
  S         4.2864433281       10.1401695347       11.4436202763
  C         3.8715558994        7.2156894880       11.0492065880
  H         6.5789309965        8.6281706641       31.3955628303
  H         4.8961182251        8.1182673169       31.5175168621
  C         5.9216251167        7.2544880600       29.9029581333
  H        -7.7067359493       10.8648551803       24.7931739456
  H        -7.3060761968       11.7020995457       26.2192160902
  C        -8.5024137266        9.8372564270       26.5041452685
  H        -2.2370658912       17.2774195093       35.1728015444
  C        -2.8060984719       15.7799936623       36.3387831090
  H         4.4216358300        7.8390666777       10.3325403381
  H         4.2502032820        6.1793222050       10.9316070524
  C         2.3868493204        7.1499294245       10.8235567880
  H         6.8004485017        7.4669281819       29.2966413023
  H         5.1119685064        7.0601282241       29.2319419086
  C         6.0862760595        5.9416827762       30.6429286494
  H        -8.5167174736        8.7143923165       26.3826007828
  H        -8.2797670750        9.9216446348       27.5913843017
  C        -9.8289467753       10.3932868672       26.1172183452
  S        -3.2132456593       14.2149509441       36.7721121505
  C        -2.9468147662       16.7703154317       37.4925142892
  H         1.8016800094        6.8372736221       11.6975208411
  H         1.9172500375        8.0385426074       10.4891312706
  H         2.0809773870        6.4058018294       10.1267681680
  H         6.2449878861        6.2572266971       31.6845663601
  H         7.0195849236        5.4931886740       30.3285365845
  H         5.2923173644        5.1828661129       30.6319066387
  H       -10.7160035549        9.7644995739       26.4470377286
  H        -9.8974550328       10.5053462675       25.0964134359
  H        -9.9991040470       11.4416800790       26.5533071013
  C        -3.8164305165       14.8729317118       38.2973049302
  N        -3.5410129359       16.1535104920       38.5386889362
  O        -2.8351349868       18.0068599102       37.4869736605
  S        -4.5084172510       13.8914560013       39.5863419570
  C        -3.8280163671       16.9262684478       39.8028499922
  H        -4.3033568194       17.9335579023       39.6147854274
  H        -4.6372302884       16.4354255915       40.3897571849
  C        -2.6140176083       17.2202887665       40.6827445180
  H        -1.7125758636       17.0408281734       40.1363634765
  H        -2.6006836239       18.2974931467       40.8660290253
  H        -2.6025318407       16.5424293626       41.4948411899
