352
 i =    32800, time =    32800.000, E =        24.9492125476
  H        12.1944936978        5.5660318938       32.4241666633
  C        11.2247427639        5.9565894410       32.2961694572
  H        10.5977501281        5.1006346030       32.0027234453
  C        11.2050158552        6.9301174003       31.0931305748
  C        10.6226359909        6.5771220337       33.6036687491
  C        11.6440040399        6.3150815106       29.7091515361
  H        10.1244788740        7.2388873209       30.9679497476
  H        11.7917683280        7.7516739723       31.2695273278
  H         9.5232103697        6.5094078996       33.4169474339
  H        10.8939327774        6.1584522215       34.5312109478
  H        10.8484828612        7.5815744588       33.6554051540
  C        10.4896673698        6.4230395612       28.6268485389
  H        11.8275997376        5.2291769895       29.7785885999
  H        12.4151607325        6.9048522716       29.2079427210
  C        10.9327133935        5.9109954185       27.2261657858
  H         9.6440216436        5.8423465935       28.9426516949
  H        10.2249941662        7.5236617171       28.6260061434
  C         9.8101889580        5.2897828655       26.4529553906
  H        11.6914777538        5.0468973099       27.2082432798
  H        11.2284671935        6.6962943975       26.5603983015
  C         8.5709632968        6.1190277840       26.2510120454
  H        10.2113272009        5.1878387963       25.4659675987
  H         9.4994123812        4.3915123263       26.9276039332
  C         7.4427847439        5.5152284380       25.3195971875
  H         8.0446694345        6.3060825173       27.2360580773
  H         8.8027421441        7.1121645865       25.8838458072
  C         7.0127491222        4.2128770456       25.9846289436
  C         7.9399182544        4.8629643859       24.1403570177
  C         6.3025641827        6.5359001134       25.1771806933
  C         7.3726441176        3.1768472160       25.2302857877
  C         6.5350281585        3.8295815612       27.1948544581
  C         7.8538579731        3.5277347361       23.9519658307
  C         8.3964348903        5.5250335899       22.9950169433
  H         6.6512841552        7.2709899197       24.5196020786
  H         6.0474057538        6.9920723584       26.1562190977
  C         5.1226257926        5.8610005028       24.5309573189
  S         7.0923316567        1.6045510351       25.9515014062
  C         6.5417255343        2.4953489542       27.3891186275
  H         6.1969451184        4.5733793919       27.9606684855
  C         8.2669530294        2.9084228645       22.8368762488
  H         8.5383637645        6.5786831347       22.9522931395
  C         8.7650817392        4.9443141988       21.8327471470
  H         5.4765871778        5.6542641061       23.5438341028
  H         4.8190109971        4.9121743640       24.9574927327
  C         3.8275016615        6.8037834848       24.3122466723
  C         6.1283639042        1.8752201080       28.6882640727
  C         8.7923891068        3.6039380052       21.7577219357
  H         8.3056200243        1.8187662386       22.9606316117
  C         9.1895741868        5.3556184066       20.6304074133
  H         3.1445121618        6.2699527516       23.6635751441
  H         4.0110058620        7.8340619697       23.8463208224
  C         3.0417958065        6.9303008355       25.6311370136
  C         5.9558564321        0.4865333746       28.8724102085
  C         5.6641372401        2.6935930385       29.8037783451
  C         9.2139434959        2.8663746076       20.4953450897
  C         9.5198081642        4.2383391781       19.8684210124
  S         9.5089256027        6.8100898735       19.8278185906
  H         2.1811048040        7.5340344580       25.3314077743
  H         3.6153403510        7.3117297532       26.4497242992
  C         2.3095224501        5.6182435288       26.1144007255
  N         6.2891209822       -0.4884070623       27.9095299601
  C         5.5043501919       -0.1171324548       30.0130825903
  C         5.1993506132        2.0663123296       30.9898294304
  H         5.5409870305        3.7856225859       29.7954582109
  C         8.0634542435        2.0156791864       19.8309263456
  C        10.5135083002        2.0000119884       20.6723620409
  C         9.9405154318        4.5392578539       18.5659954833
  C         9.9203745951        5.8959718347       18.3538992319
  H         1.8285111792        4.9944357696       25.3345296924
  H         3.0489454197        4.8927665788       26.5047193074
  C         1.2229184554        5.8098037198       27.1788983213
  S         6.2652915856       -1.9713789555       28.5429764608
  N         5.7745908793       -1.5340126687       30.0116809640
  C         5.2083839340        0.6001342718       31.1708890797
  H         4.8915584664        2.6757215223       31.7877120770
  H         7.5404650177        1.3605502251       20.5158233934
  H         8.2966101804        1.4759816711       18.9345775465
  C         7.0348741917        3.0173319464       19.2455623015
  H        10.6709097099        1.4060407672       19.8039985640
  H        10.1935398026        1.3082838057       21.4405292394
  C        11.8482316126        2.8427922595       20.9006221009
  H        10.1446640024        3.6672020027       17.9003348702
  C        10.2005508300        6.5749370353       17.0280534215
  H         0.7825710045        4.8220751383       27.2040200879
  H         0.2925108129        6.4771041006       27.0593526731
  C         1.6525784704        6.0504398721       28.5724367869
  C         5.0024466759       -0.1270005030       32.3514287532
  H         7.3777024798        3.6667678358       18.3670018940
  H         6.7363155960        3.7064733683       20.0132060242
  C         5.8032180695        2.3577856290       18.7199060329
  H        11.5658797407        3.4794191553       21.7829971201
  H        11.9528373020        3.3926649577       19.9301642272
  C        13.0174620144        1.9961231200       21.0917605618
  C        10.3219683788        7.9337077453       16.8589270373
  C        10.5409776027        5.7089605762       15.8672562942
  H         1.4940269146        7.0133749609       29.0466504090
  H         1.0375962074        5.3627838094       29.0987817799
  C         3.0452239630        5.6393310451       28.9320290396
  H         5.1007978130       -1.1864847083       32.3196820471
  C         4.7543318330        0.3018633451       33.6625341384
  H         5.3026218816        1.8619895253       19.5937271154
  H         6.1442471026        1.5796263328       18.0031319360
  C         4.7549526319        3.3987869788       18.1981416893
  H        12.9435342905        1.5892998998       22.0821551282
  H        12.9572043847        1.0836232906       20.4020050457
  C        14.3402224913        2.7250673650       20.9352007652
  N         9.9981953023        8.9646966806       17.8148085833
  C        10.7330990870        8.4879618792       15.6441262540
  C        10.9644168278        6.2569506740       14.6958171513
  H        10.4388308203        4.6799471002       15.7959237828
  H         3.2130084775        4.6702804640       28.4783438899
  H         3.7331869120        6.3731579059       28.5437646477
  H         3.1558691764        5.4437742706       29.9629309786
  S         4.2364731327        1.9142163742       34.1362250395
  C         4.7908202869       -0.7215238176       34.7060368901
  H         4.6235972418        4.0072771048       19.0105351709
  H         5.1888442853        3.9391412115       17.3542242646
  C         3.3571191386        2.7776241681       17.7072309682
  H        14.3831748032        3.5723578808       20.2483507648
  H        15.0691215687        1.9493640820       20.5832234540
  C        14.6676723988        3.2892628054       22.2902310004
  S        10.2267940382       10.4205785449       17.1266338058
  N        10.8156411798        9.8935820977       15.6984648877
  C        11.0798713131        7.7067070703       14.4843769312
  H        11.0670096164        5.5933584523       13.8364598952
  C         4.0256708482        1.1537821858       35.7720273132
  N         4.4512175675       -0.1297079368       35.8564082713
  O         5.1056673493       -1.8704158294       34.4788516828
  H         2.9016514892        3.6618213781       17.1731631105
  H         2.6664317712        2.5928825753       18.5177394818
  C         3.5277358604        1.5560449765       16.8205527847
  H        15.3664450787        4.0951130894       22.1545997227
  H        13.6637193535        3.6087785809       22.7289405819
  C        15.2708271090        2.2185155371       23.2272280163
  C        11.3698643408        8.3459141584       13.2954947355
  S         3.6607249370        2.0462553839       37.2260729288
  C         4.6265597708       -0.9236876593       37.0653963827
  H         2.7408926846        1.4446225632       16.1303641550
  H         4.4481373158        1.6767631914       16.2851385790
  C         3.5292372638        0.2167567940       17.6394314936
  H        15.0121430685        1.2470974958       22.8369554253
  H        14.8555031474        2.2048072736       24.2609562967
  C        16.7892808710        2.4118130445       23.4544756924
  H        11.1571919411        9.4171864672       13.2849000451
  C        11.8531220283        7.9262937615       12.0778973694
  H         3.8069693296       -0.7232587949       37.7463748460
  H         4.5137295797       -1.9795263378       36.8001216225
  C         6.0009737324       -0.7428269782       37.5998693504
  H         3.6900340360        0.5019458510       18.7259070200
  H         4.3650134488       -0.4108316126       17.3339140688
  C         2.3734538398       -0.8081016304       17.6115087261
  H        17.0579504761        3.2729431297       24.0211754369
  H        17.2953612050        1.6234184821       23.9761389843
  C        17.5165645478        2.4380101856       22.0949085447
  S        12.5016520962        6.2997142039       11.7656221190
  C        12.1295328073        8.9558130050       10.9683243458
  H         6.8799946980       -0.8700090304       36.9304852376
  H         6.0346863141        0.3083385444       37.9461027454
  H         5.8930500865       -1.3816911469       38.4397976839
  H         2.7984286379       -1.7429826026       17.9778406290
  H         1.9924916659       -1.0946846770       16.6419862243
  H         1.5803431005       -0.4418367972       18.3009977490
  H        17.4600852446        1.4756030961       21.5348417596
  H        18.5137985630        2.7910362827       22.2296433024
  H        17.1127638217        3.1768818501       21.4434169471
  C        13.0670721305        6.9748243993       10.1824074518
  N        12.7921685583        8.2684657693        9.9992955669
  O        12.0313775769       10.1804316055       11.1516584573
  S        13.6767494181        6.0518478771        8.9016290583
  C        13.2093788185        8.9612190823        8.8047499141
  H        13.5034478498        9.9775833661        8.9951927208
  H        14.1470913270        8.5190241693        8.4477161212
  C        12.0124830165        9.0919462131        7.8360843298
  H        12.0366753165        9.9683627562        7.2141602473
  H        12.0882992009        8.2240764975        7.2209217875
  H        11.0890350519        9.0647592452        8.3533593646
  H        -2.9952195884       15.2658374235       16.2024241438
  C        -2.6321996740       14.1983291342       16.2177728228
  H        -3.4582333975       13.5713237666       16.6118461464
  C        -1.4586245761       13.9167218084       17.1622022296
  C        -2.1736127674       13.8208434162       14.7932227290
  C        -1.8711313320       14.2109788138       18.5450577493
  H        -1.2067729000       12.8545703536       17.2159281023
  H        -0.4902267040       14.3880172141       16.8733877270
  H        -1.2129124721       14.3489953544       14.5352755157
  H        -1.8712314313       12.7518243927       14.6949134677
  H        -3.0323514070       14.0455113645       14.1206702597
  C        -1.9724707801       12.9083893025       19.4538467880
  H        -2.9194606780       14.6602203059       18.5180960119
  H        -1.2123979229       14.9694030011       19.0536508696
  C        -2.4506793793       13.3488172598       20.8161586994
  H        -2.7011609364       12.1471073289       19.0245294630
  H        -1.0269701444       12.3827725142       19.4503607518
  C        -1.4021529530       12.9074575100       21.8601675508
  H        -3.4761624486       13.0381094908       20.8906085382
  H        -2.5635698813       14.4693081471       20.8488339476
  C        -0.2352347341       13.8559584126       22.0479599997
  H        -1.9703217488       12.7572483858       22.7784590161
  H        -1.1530757130       11.8380999813       21.6077530892
  C         0.9591212282       13.3579033338       22.9034824842
  H         0.1659865510       14.0792689680       21.0459442651
  H        -0.6857864793       14.8488707532       22.3910539220
  C         1.3929694614       12.0580318674       22.2620316492
  C         0.5614214725       12.5916919462       24.1836887371
  C         2.2047673498       14.4138288383       23.2618784902
  C         1.2339521850       10.9322622066       23.1446379087
  C         1.9539100506       11.6870976595       21.0607086085
  C         0.6726883535       11.2981320247       24.3398840938
  C         0.0835741418       13.2793217663       25.3459369311
  H         2.2890565460       15.1173603913       22.4212229422
  H         1.9312949960       15.0068590323       24.1328774036
  C         3.5034626132       13.6114015275       23.5190022244
  S         1.5931762466        9.4441164235       22.3224821038
  C         2.1376399874       10.3187475044       20.9039368344
  H         2.0791125468       12.4209662025       20.3013759860
  C         0.3061386075       10.6655489887       25.5007787236
  H        -0.0584234277       14.3630138438       25.3604487240
  C        -0.3438843225       12.6393106971       26.5124808939
  H         3.8490573179       13.1455153483       22.5625173116
  H         3.3574665583       12.8051306943       24.2017680366
  C         4.6484083854       14.5026475221       24.0255576664
  C         2.6170999487        9.6553611704       19.6795511657
  C        -0.2842342467       11.2962001834       26.6072649617
  H         0.3847939855        9.5714748712       25.4922445182
  C        -0.7763035868       13.0858146147       27.7916601477
  H         5.2988902584       13.9827176834       24.7512055615
  H         4.3144092112       15.3923530563       24.5100922064
  C         5.5920305915       14.9863709310       22.9186109960
  C         2.6885547544        8.2737876340       19.5702976942
  C         2.8575571731       10.4280643320       18.4156158536
  C        -0.6015458577       10.6241697511       27.9709181968
  C        -0.8598594054       11.9751756753       28.6208174105
  S        -1.0937785724       14.5480530030       28.5902925985
  H         6.2043619557       15.7700738048       23.3297613282
  H         4.8463820628       15.2888477838       22.1866169149
  C         6.5246048755       13.9003149305       22.3460762180
  N         2.3624988936        7.2912922333       20.5382610703
  C         3.0337622044        7.6625122300       18.3598995953
  C         3.2434022834        9.8849177727       17.2315990320
  H         2.8653540251       11.5041946029       18.4590534730
  C         0.5800178915        9.8107556650       28.5095138959
  C        -1.7945744427        9.6232179084       27.9591748520
  C        -1.1708002395       12.3490779720       29.9415014724
  C        -1.2349324193       13.7160619782       30.0622959820
  H         7.2706207010       13.5799462389       23.1106469381
  H         5.9731889828       13.0162593297       22.1656291184
  C         7.2516542737       14.2253072928       21.0259904487
  S         2.2229807169        5.8106149908       19.8421738061
  N         2.7637290416        6.2412348791       18.3349893161
  C         3.3002951290        8.3871815723       17.0979939292
  H         3.5085132099       10.4851339059       16.3532303916
  H         0.8965377686        9.0708261781       27.7659270346
  H         0.2684749398        9.1865356289       29.3928121976
  C         1.8759361701       10.5434160628       28.9581972531
  H        -1.5084247496        8.7160251636       27.3887870756
  H        -1.9058726793        9.0808572834       28.9431714184
  C        -3.1888365449       10.1124512833       27.5686637103
  H        -1.3183228514       11.5720264936       30.7521130962
  C        -1.6527396907       14.4497707603       31.3388951668
  H         7.9632037018       13.4276715331       20.7641750830
  H         7.8855681478       15.0454654763       21.3136979989
  C         6.3778414286       14.5851250232       19.8000615041
  C         3.6603690190        7.7136727980       15.9557118089
  H         2.1445288042       11.1256726683       28.1182032708
  H         1.7734706142       11.1354970705       29.8488853210
  C         2.9526055155        9.5201026452       29.2892104223
  H        -3.0081055646       10.8050190287       26.7698398792
  H        -3.5765081574       10.7910466918       28.3336625088
  C        -4.1196118282        8.9959400817       27.2014623062
  C        -1.5697715206       15.8951635640       31.5479510456
  C        -1.9055269595       13.6357654746       32.5053509066
  H         5.6880660003       15.3777874671       19.9499539085
  H         6.9882000985       14.9603146851       18.9814582287
  C         5.5094343266       13.4749999538       19.3295083004
  H         3.1805076963        6.7607321741       15.7972494520
  C         4.0770025493        8.1087401293       14.7272960024
  H         3.3249359223        9.0401608364       28.3372172620
  H         2.5504723712        8.7483681558       29.9774202246
  C         4.1327345938       10.2541841100       29.9600983662
  H        -3.7186261201        8.5161585616       26.3339996288
  H        -4.1018189775        8.2468621077       28.0252643566
  C        -5.6152653453        9.3017240496       27.0130818313
  N        -1.3327306175       16.8302762295       30.4823695289
  C        -1.8989644376       16.4929498441       32.7495015927
  C        -2.2166897102       14.2565297613       33.6773265720
  H        -1.9338799636       12.5384453978       32.5420645903
  H         6.0215191521       12.4887248472       19.5627847220
  H         4.4909991150       13.5919825409       19.7478438678
  H         5.4444763381       13.3534050609       18.2984891138
  S         4.3705187666        9.6979311594       14.0892295085
  C         4.2981309210        7.0367083677       13.6653972239
  H         4.4466995624       11.1746982121       29.4337913752
  H         3.9866000523       10.4624583248       30.9655098034
  C         5.4120870156        9.3931902812       29.7462712051
  H        -5.9480719639        9.9194153993       27.9258795794
  H        -6.2473187038        8.4510270019       27.0704167332
  C        -5.8516527412        9.8925523542       25.6204800974
  S        -1.4881099702       18.3218013277       31.1449150374
  N        -1.9345296935       17.8793250784       32.6476963052
  C        -2.3027994893       15.7306941757       33.8341286235
  H        -2.4683167476       13.6510367470       34.4850182501
  C         4.6067191216        8.9306601983       12.4775075325
  N         4.5901567381        7.5929404211       12.4469845594
  O         4.3105610512        5.8184409443       13.9152889097
  H         6.2502560693       10.0409861234       29.8201791091
  H         5.5252387766        8.9576571311       28.8121126262
  C         5.4588263729        8.1986999561       30.7380150102
  H        -4.8762862724       10.2677914818       25.4386023273
  H        -6.0238377735        9.1621461340       24.8879810323
  C        -6.9293764644       10.9605254061       25.4990491327
  C        -2.6466388229       16.4120687291       35.0006163598
  S         5.1134886278        9.6454760268       10.9759347157
  C         4.5796369615        6.8343395246       11.1998516994
  H         5.4263683971        8.5378081091       31.7673005931
  H         4.5340225933        7.6774340126       30.4361893720
  C         6.7734884647        7.3159386818       30.5640854548
  H        -6.6734965146       11.5380999556       24.6756865258
  H        -6.9587302227       11.5499845740       26.3866485378
  C        -8.2775322840       10.3157004333       25.2120193885
  H        -2.4939730950       17.4501647346       35.0215401805
  C        -3.2450535883       16.0092453430       36.1582255590
  H         5.3024625736        7.0472159832       10.4635964983
  H         4.9120004417        5.8050227821       11.4350894937
  C         3.1805957183        6.6988712566       10.5065110970
  H         7.7864627231        7.8261289358       30.5099719823
  H         6.6607195460        6.7738422755       29.5437324770
  C         6.9109725927        6.3671124809       31.7163860161
  H        -8.5883839584       10.4701017821       24.2118331805
  H        -8.3560864147        9.2505408103       25.3760292015
  C        -9.2531366308       10.9558746076       26.2306162122
  S        -3.7394947601       14.4317239938       36.6119064708
  C        -3.4973167362       17.0292400242       37.2085350005
  H         2.5379369081        6.9315506779       11.3536729002
  H         2.9096672975        7.4336876041        9.8056021153
  H         3.0737388240        5.6724068082       10.0900492822
  H         7.8134455471        5.8234280193       31.6403956320
  H         6.1841801390        5.5407461954       31.6409219639
  H         6.8063910467        6.9519387518       32.5977552451
  H        -9.2387324717       10.4750090269       27.1898326957
  H       -10.3198149405       10.8044811618       25.9553088059
  H        -9.2404022342       12.0043234245       26.2548831939
  C        -4.2062254194       15.0889293724       38.2320394592
  N        -4.1197495537       16.4447965275       38.2519896925
  O        -3.3619808857       18.2720182505       37.0393823557
  S        -4.8032079779       14.2775163541       39.5847692993
  C        -4.3249526748       17.2686332568       39.4815936154
  H        -4.7651800660       18.2116938523       39.1847478147
  H        -5.0765883930       16.7704841019       40.1339758818
  C        -3.0845595818       17.3337140649       40.3016852147
  H        -3.2062281903       17.9555329375       41.2043129932
  H        -2.7523493256       16.3518025390       40.6161617558
  H        -2.2628251249       17.7183987191       39.7269865054
