352
 i =    20400, time =    20400.000, E =        24.7339278539
  H        12.1236647755        7.1851537418       32.0640258148
  C        11.6245916951        6.2022151552       32.1650205495
  H        12.5050292323        5.5659556792       31.9330457005
  C        10.4624887700        6.1821624701       31.0647270502
  C        11.1227924137        5.9691251570       33.5471413206
  C        10.8616728557        5.6867692643       29.6716945325
  H         9.6357509829        5.5591199340       31.4177256970
  H         9.9765938904        7.1941035511       30.9795572983
  H        10.2220925897        6.4927697034       33.7887539947
  H        11.1018017890        4.8890568063       33.5704299042
  H        11.8531785393        6.1334290155       34.3873954356
  C         9.7748699288        5.8658857377       28.6655092518
  H        11.1169577392        4.6298854555       29.6989612379
  H        11.7811766533        6.1979814387       29.2904758346
  C        10.3848482946        5.6954924295       27.2065583823
  H         9.0079482241        5.2074118959       28.8669578629
  H         9.3081822462        6.8233068889       28.8980328017
  C         9.5276259751        5.0269409528       26.1739397680
  H        11.2263663226        5.0124512995       27.1423415403
  H        10.6082964144        6.7289368394       26.8662425584
  C         8.3406803991        5.9057870347       25.8128918513
  H        10.0774482343        4.7692355510       25.3275552045
  H         9.1368898283        4.0792241826       26.5651158027
  C         7.2470048654        5.1350886439       25.0622312922
  H         7.8768660896        6.4551390056       26.5979672604
  H         8.6512615534        6.7020086268       25.1301806881
  C         6.8239799525        3.8422370195       25.7322055126
  C         7.6544694987        4.4179734764       23.8648814392
  C         5.9559758648        5.9494693397       24.9621289156
  C         7.1139036049        2.6989269180       24.9784623595
  C         6.4414192473        3.4988560680       27.0494513039
  C         7.5690343640        3.0470148348       23.6857835341
  C         8.1171931561        5.0500055264       22.7113977133
  H         6.1192593259        6.9232796379       24.3914087912
  H         5.6346290970        6.3139889998       25.9379834543
  C         4.6381818182        5.2929918029       24.4404714369
  S         6.8095900575        1.2351451315       25.8610941825
  C         6.3456684427        2.1460908309       27.2533102216
  H         6.2831697750        4.2763375852       27.7498456168
  C         7.9700570501        2.4554690270       22.5301878483
  H         8.1421271295        6.1417678744       22.8382545025
  C         8.5152807650        4.4338948001       21.5722426387
  H         4.9138920588        4.9044041363       23.4276459245
  H         4.3827928856        4.4525703263       25.0269159528
  C         3.4018461482        6.2275004256       24.3352248063
  C         5.8862985181        1.4551308701       28.5187089281
  C         8.4309109652        3.1544059724       21.3920806067
  H         8.0079497998        1.3571270484       22.4669083027
  C         8.9971339348        4.8942030278       20.3749065856
  H         2.7143503063        5.7397306688       23.6158620888
  H         3.7827958029        7.1686673606       23.9361280630
  C         2.7629223004        6.3643949367       25.6565724468
  C         5.8181155847        0.0762736488       28.7639451453
  C         5.5229726439        2.2520635275       29.6622453906
  C         8.8423262349        2.4874159148       20.0815524871
  C         9.1419586879        3.8376406791       19.4893968808
  S         9.3783737143        6.3852704403       19.6594942691
  H         2.1108874627        7.2416292176       25.5530822316
  H         3.4903144428        6.6769968467       26.3828968405
  C         1.8788296843        5.1176819088       26.1787795170
  N         6.1499833180       -0.9152703439       27.8992101541
  C         5.6047654458       -0.4063967840       30.0146235258
  C         5.2003021139        1.7601220174       30.8690982253
  H         5.3684925179        3.2976992207       29.5189099797
  C         7.7532994057        1.8300936607       19.1282105658
  C        10.1218613095        1.5604506443       20.1888032053
  C         9.6351904450        4.3054461480       18.2590594790
  C         9.6692803941        5.6548866201       18.1511030338
  H         1.1670728471        4.8500161825       25.3800717734
  H         2.6178334914        4.3485822946       26.2373631349
  C         1.2153608754        5.3668332822       27.5895618800
  S         6.2366058867       -2.3612597963       28.6765915118
  N         5.7943034481       -1.8008979884       30.1340066605
  C         5.2887158751        0.3246518394       31.1529028072
  H         4.9247922481        2.4154265247       31.6969634511
  H         7.3514679817        0.9903553356       19.6265776499
  H         8.2403204162        1.4762996131       18.2194610565
  C         6.5720143469        2.6854390197       18.6806646351
  H        10.3828525858        1.0032938538       19.2492915275
  H         9.9156010665        0.7821679205       20.9128827924
  C        11.2714586393        2.3451276507       20.7492531750
  H         9.8051587225        3.5357390080       17.5202885652
  C         9.9994388361        6.4202091163       16.8664815487
  H         0.4956179095        4.5822947619       27.5790553271
  H         0.6300865429        6.3351484944       27.5414453991
  C         2.2138380917        5.3871215213       28.7241706146
  C         5.0615995283       -0.2845389629       32.4196828090
  H         7.0099169861        3.1379147605       17.7805114962
  H         6.3374505454        3.4503195385       19.4410775622
  C         5.3395860095        1.7901316853       18.4221257949
  H        11.0065886437        2.9656364836       21.6459494206
  H        11.5635006801        3.1208239234       20.0404686492
  C        12.4874805597        1.4384476605       20.9601838352
  C        10.0817812177        7.8616498367       16.7857254100
  C        10.3238991300        5.7590533563       15.6170502289
  H         2.8098153858        4.5065635060       28.5229598707
  H         2.8282043893        6.2650540263       28.6008912121
  C         1.5095570131        5.2824030394       30.0993642492
  H         5.0243917439       -1.3273256264       32.4082506607
  C         4.7850723012        0.1379245407       33.7138467142
  H         4.7708766517        1.5235312126       19.3686510487
  H         5.6337065308        0.9220429728       17.8995539420
  C         4.2374246165        2.5708423527       17.6355249391
  H        12.3738404304        1.0387128216       21.9530792263
  H        12.5594928128        0.6263540243       20.1792838142
  C        13.8038589555        2.1652736730       20.9065799412
  N         9.9368486990        8.6760360866       17.9526270131
  C        10.3706281013        8.5720947459       15.5991769464
  C        10.6990524442        6.4261882736       14.4464247566
  H        10.3019836134        4.6626489026       15.4953405644
  H         1.0596580306        6.2079355205       30.3699551212
  H         0.5282672287        4.6450845817       29.9546514340
  H         2.2164303298        4.8294001648       30.8207382526
  S         4.5797511786        1.8018825648       34.1219327229
  C         4.6180106930       -0.7545290200       34.7748533659
  H         4.1001645453        3.6062909473       18.0614705922
  H         4.5157058527        2.7700285429       16.6390352176
  C         2.8616102271        1.9676126387       17.5644827479
  H        13.8511580485        3.1569282278       20.4201361284
  H        14.4630663666        1.4780784502       20.4084696502
  C        14.4507659321        2.4567395209       22.2778922731
  S         9.9433635278       10.2488051636       17.4459771873
  N        10.3446743028        9.9738716559       15.9057392203
  C        10.6965081360        7.8984398980       14.4151421446
  H        10.8539538774        5.7387902354       13.5756148398
  C         4.1796238878        1.2753536924       35.7387715371
  N         4.2714644717       -0.1054763828       35.8928410412
  O         4.6943724168       -1.9998442993       34.6917261671
  H         2.1801273189        2.6455156743       17.0767769833
  H         2.3647988414        1.9745068232       18.5446922811
  C         2.8885460660        0.6007710362       16.9234795598
  H        15.2569704466        3.1978873619       22.1202799231
  H        13.7213925328        2.8271552600       23.0101349220
  C        15.2071752178        1.2946604369       22.8827425990
  C        10.9005356705        8.6637641472       13.2615771990
  S         3.5574651638        2.3054207093       37.0214054444
  C         4.4289638976       -0.7589394924       37.1861877284
  H         2.2980756712        0.6208259929       15.9802742581
  H         3.8595206256        0.4149418506       16.5726416429
  C         2.4617226102       -0.4508370941       17.9378738486
  H        15.2591433825        0.5857913905       22.1298280406
  H        14.5205960148        0.7686830267       23.5798906291
  C        16.5468629163        1.7754362349       23.5444207918
  H        10.5593329361        9.6199995714       13.2737927205
  C        11.3538127945        8.3188355440       12.0070588886
  H         3.9386123156       -0.1788517629       37.9612532588
  H         3.9598700026       -1.7294027888       37.1755084770
  C         5.8696214415       -0.8882390843       37.5353970960
  H         1.4739780133       -0.2395058470       18.3712418564
  H         3.0320158159       -0.4027437816       18.8211134089
  C         2.4146241745       -1.8371556963       17.3119539516
  H        16.2855820432        2.7311788005       24.0455967000
  H        16.7969864780        1.0394143014       24.2690039086
  C        17.7782074081        1.9200237497       22.6015344761
  S        12.0042743127        6.8319585680       11.4585406584
  C        11.3064364020        9.3710672540       11.0186046954
  H         6.2325100333       -1.9103922157       37.7486250784
  H         6.5190846602       -0.5274159985       36.8584830212
  H         6.2178445663       -0.3038734661       38.4133017950
  H         2.1179199841       -1.7395022510       16.2753030617
  H         1.7178177487       -2.4201800557       17.8575654352
  H         3.4240127139       -2.2907324382       17.3640418134
  H        18.6656028619        1.8714577795       23.2379533329
  H        17.6845460538        2.8697972692       22.1533826824
  H        17.8468167014        1.0745525262       21.8984072351
  C        12.1758880686        7.6165546323        9.8943414478
  N        11.8822318854        8.9356992020        9.8660998119
  O        11.1011097240       10.5739726742       11.2624982623
  S        12.9555653032        6.9985464790        8.4259833331
  C        12.0222224156        9.8975470048        8.7280475004
  H        12.2951111763       10.8331979577        9.2231723097
  H        12.8392173039        9.7140661902        7.9177497815
  C        10.6539867475        9.9842963496        8.0170083917
  H        10.2677158511        8.9611951716        7.8766964398
  H        10.0423860832       10.4202249472        8.7816223675
  H        10.6629279881       10.5166522347        7.0079810954
  H        -4.1013075211       14.5936416879       16.9818887975
  C        -3.5129122845       13.6415955504       17.0279131396
  H        -4.1692787366       12.8264889339       17.1648375574
  C        -2.4079130659       13.6976883614       18.1340303854
  C        -2.8309915934       13.4849345072       15.6811755615
  C        -2.9355111690       13.9226492894       19.5416586453
  H        -1.8463771051       12.7887142342       18.1806269838
  H        -1.6661126238       14.3998141406       17.9575946692
  H        -1.8814765340       12.9811010146       15.8001594659
  H        -3.4574292383       12.9005575988       15.0578768752
  H        -2.6570466313       14.5123646932       15.3465972263
  C        -1.8373440163       13.9075954057       20.5808088572
  H        -3.8252283365       13.2945898647       19.8325288932
  H        -3.2728145811       15.0227864293       19.6550420233
  C        -2.2238425970       13.5776877833       21.9951130830
  H        -1.2151465654       13.0622077296       20.2834037042
  H        -1.3027758812       14.9384575157       20.4709913924
  C        -1.1542164047       12.8350633278       22.7494426195
  H        -3.0918164024       12.8996718909       21.9887607576
  H        -2.4156198292       14.5166128754       22.4988636550
  C         0.1101860470       13.8068261232       23.0221505925
  H        -1.6778542388       12.5931997779       23.6448947156
  H        -0.8393371933       11.8994932657       22.2060644953
  C         1.2702500542       13.0078639685       23.8036729381
  H         0.6081717543       14.2141088678       22.0876308254
  H        -0.0980721050       14.7147748992       23.6419529550
  C         1.5843327207       11.5838765109       23.1567544484
  C         0.7246125575       12.3033736151       25.0000784418
  C         2.4706287685       13.9433185100       24.2039325448
  C         1.2985457631       10.4804855805       23.9618862980
  C         2.1156977781       11.2576524871       21.9119883800
  C         0.7701453791       10.9380549307       25.1742309721
  C         0.2557503171       13.0179415579       26.1001835103
  H         2.7888990280       14.5163450055       23.2984698207
  H         2.1476586206       14.6220158723       24.9572201687
  C         3.7954467777       13.1847483665       24.5636516674
  S         1.5650882273        9.0200503409       23.1903324065
  C         2.1122520968        9.8975926564       21.8138782577
  H         2.2759561706       12.0119844820       21.1390105584
  C         0.3820345332       10.3315781521       26.3228440866
  H         0.2595351128       14.0570374124       26.1691982617
  C        -0.0990990737       12.3911086260       27.2409720169
  H         3.9537802203       12.3621811118       23.7793040516
  H         3.7075252614       12.7017005131       25.5220418519
  C         5.0628180359       14.0147523752       24.7968705285
  C         2.4298856514        9.2016486274       20.5091678921
  C        -0.0664739483       11.0539755973       27.4256807879
  H         0.5709928088        9.3051998651       26.3372152049
  C        -0.4187349967       12.7532796782       28.5316153634
  H         5.8216421731       13.5629050683       25.3535290710
  H         4.8104813101       14.8214739443       25.4334545200
  C         5.6248323909       14.4203877476       23.4322960507
  C         2.4214315682        7.8229800897       20.2183464519
  C         2.8864236938       10.0303284380       19.3434318632
  C        -0.4791933738       10.3476444207       28.6935861590
  C        -0.6851879684       11.6456846171       29.3464999262
  S        -0.7907898415       14.2928116285       29.2421083838
  H         6.1740541712       15.3628581445       23.4656703092
  H         4.7791835026       14.4959696991       22.7460958360
  C         6.6255107329       13.4192366503       22.8638844783
  N         2.1893986303        6.7723641324       21.1178329193
  C         2.6939827169        7.3303927385       18.9840171264
  C         3.0402253619        9.5141126492       18.0302696736
  H         2.9384727976       11.1010529338       19.4761381552
  C         0.6556045850        9.5155294376       29.3493876991
  C        -1.7978288974        9.5246331435       28.5481680903
  C        -1.1624508053       12.0970618470       30.5854577331
  C        -1.2013029672       13.4805419457       30.7201762197
  H         7.3422519579       13.2090766512       23.7082518884
  H         6.2705318549       12.3928692231       22.7373387725
  C         7.2605974562       13.9815849883       21.5700149022
  S         2.1192484405        5.3740470473       20.2520452299
  N         2.6435948395        5.9159180740       18.8671219643
  C         2.9060491214        8.0512767932       17.7977416797
  H         3.3135960638       10.1438085081       17.2470267800
  H         0.9356693617        8.6467875578       28.8676072569
  H         0.2900504642        9.1503353999       30.3127625495
  C         1.9321081621       10.3128822738       29.6596573379
  H        -1.4477703496        8.5941129949       28.1421836108
  H        -2.0765885494        9.3676329522       29.5892304843
  C        -2.9295878181       10.1532661455       27.7450558967
  H        -1.3552068406       11.3729911779       31.3755144747
  C        -1.6157399233       14.1815900503       31.9688188871
  H         8.0162703005       13.2638722574       21.3275571239
  H         7.8501530620       14.8221535184       21.8894986397
  C         6.2727107815       14.2996856134       20.4996774115
  C         3.1620956848        7.3469672632       16.5720158074
  H         2.1345514856       10.8930974342       28.7861397647
  H         1.7434478293       10.9750493263       30.5068684431
  C         3.0466288870        9.3756052889       30.0531933784
  H        -2.6085447643       10.4866809170       26.7736080016
  H        -3.2227879214       11.0894728725       28.3102776958
  C        -4.2488655432        9.2684658724       27.5750840919
  C        -1.7033921435       15.5811303229       32.2224748029
  C        -1.8432243916       13.4055380571       33.2299063509
  H         5.3579976121       13.7579908755       20.6082751137
  H         5.9114998672       15.3574517065       20.5042170423
  C         6.7374351143       13.9410600563       19.0560819609
  H         2.9615855470        6.2915085659       16.5581502850
  C         3.3805211064        7.7024876819       15.2916113255
  H         3.5468041648        8.8832692630       29.1876670572
  H         2.7119555895        8.5698636369       30.7057971839
  C         4.0867339171       10.2719920873       30.7246042814
  H        -4.1582710997        8.8972439601       26.5152203124
  H        -4.4430964314        8.3935508782       28.1888961197
  C        -5.5203036286       10.1292304559       27.5982855286
  N        -1.5402775372       16.6287695010       31.2720171475
  C        -2.0864471982       16.1935254979       33.4090290124
  C        -2.2586739889       13.9618348664       34.4587908257
  H        -1.8485130287       12.2873804183       33.1464715192
  H         6.5433181133       12.9065645126       18.7584820411
  H         6.0918699902       14.5742996454       18.4221540805
  H         7.7907230942       14.2800319892       18.8859291595
  S         3.5781358581        9.2756325179       14.6122089671
  C         3.6347077514        6.5692822271       14.3248815761
  H         4.0686982982       11.1992029721       30.2148423581
  H         3.7085918073       10.3533152757       31.7231425585
  C         5.4915407895        9.6683278927       30.7899090092
  H        -5.4030079047       10.9275967487       26.8182508587
  H        -5.6559904734       10.6112485735       28.6099676214
  C        -6.9178663092        9.4297897676       27.2637659032
  S        -1.8589307446       18.0984160444       31.8766104044
  N        -2.2308015076       17.5542919719       33.3642740914
  C        -2.4310120515       15.4168704340       34.5724410247
  H        -2.4089565990       13.2919055042       35.2950671254
  C         3.8515982220        8.4032581170       13.0486496768
  N         3.8813787364        7.0731998428       13.0773708464
  O         3.4908630216        5.3932259796       14.5647217542
  H         6.1733176170       10.3205882792       31.3522362379
  H         5.9217919377        9.7246043180       29.7828854096
  C         5.5782417458        8.3604186126       31.5788983880
  H        -6.7862612300        8.6852595623       26.4322026694
  H        -7.2369700533        8.8480757107       28.1185455263
  C        -7.9935855916       10.4262036616       26.8492061205
  C        -2.7693583955       16.1673542354       35.7578391344
  S         4.4612865365        9.1324484793       11.5743368524
  C         3.9766127527        6.2544716526       11.8783838226
  H         6.0057614279        8.6872190357       32.5350615220
  H         4.6059574489        7.9262313876       31.6877019388
  C         6.4141199659        7.3452562874       30.7891980979
  H        -7.6184738527       11.3776669792       26.4217530028
  H        -8.5886786893       10.7947478459       27.7228284985
  C        -9.0743995429        9.8522236309       25.9293202149
  H        -2.7286445839       17.2615958343       35.6446259635
  C        -3.3383546661       15.8789890193       36.9541277499
  H         4.5957987077        6.6947158672       11.0879675169
  H         4.3950392495        5.2851529689       12.2465754981
  C         2.5992029952        6.1015262941       11.1804489342
  H         6.3363840638        6.4339065698       31.3316952193
  H         7.4314903548        7.6073350278       30.6372700284
  C         5.7156893681        7.0935221297       29.4690326522
  H        -9.3692036519        8.7905777475       26.2300043014
  H        -9.8786593623       10.5474389980       26.0736896474
  C        -8.5441862939        9.8295847175       24.4898865087
  S        -3.8143949969       14.3240386875       37.4783151138
  C        -3.3614367799       16.9447433252       37.9330628838
  H         1.7225225979        5.7913058696       11.7773116142
  H         2.3228549875        7.0675003073       10.6674880248
  H         2.6386523948        5.3196620313       10.4056729274
  H         5.8926355013        6.0762954256       29.1956530359
  H         6.1808271787        7.6633097957       28.6569597319
  H         4.6669862996        7.1688423885       29.5571094287
  H        -7.6165221494        9.3609955969       24.2882224656
  H        -8.1955800079       10.8885339544       24.2525933681
  H        -9.2926685196        9.4100499084       23.7294543140
  C        -4.2221278256       15.2436431341       38.9759686225
  N        -3.9367409018       16.5356564996       39.0476032532
  O        -3.0293130108       18.1523620133       37.7528407752
  S        -4.9158545963       14.4930573507       40.4599137973
  C        -4.0563692712       17.3864503209       40.2191384801
  H        -4.2903716948       18.4199387893       39.9617905891
  H        -4.9941975843       17.1968606707       40.7768505769
  C        -2.8089303225       17.4597088155       41.1062788910
  H        -3.1247650505       17.4681041500       42.1337711580
  H        -2.1260738716       16.5636328002       41.1206604160
  H        -2.2205241104       18.3760205434       40.9328190192
