352
 i =    11400, time =    11400.000, E =        24.9067555559
  H        11.9810913009        6.8421622377       32.2105185309
  C        11.4215252214        6.0008353146       32.4251446153
  H        12.3015145643        5.4394507674       32.2118374228
  C        10.2358371517        5.6979135678       31.3816129326
  C        11.1424749968        5.7510402533       33.8964056278
  C        10.4784481202        6.2130341893       29.9045711149
  H        10.3337383177        4.6273555047       31.2505243722
  H         9.1963405979        5.9146844991       31.6863123869
  H        10.2358822454        6.2391844328       34.2701441914
  H        11.1528547208        4.7246265888       34.1424242386
  H        12.0280762632        6.0764750968       34.3667287281
  C        10.5838105320        4.9658105566       28.9590961061
  H        11.3885769236        6.7413347274       29.8609832673
  H         9.6803364688        6.8821147336       29.5922636426
  C        10.9762109379        5.2714004411       27.4595961962
  H        11.3917965383        4.3524613453       29.3724351990
  H         9.6520962253        4.4247311730       29.0463438909
  C         9.9921701434        4.7022960473       26.4585331184
  H        11.8829325152        4.7669793263       27.2693115110
  H        11.3089722358        6.3011913176       27.3620649543
  C         8.8654917982        5.6963845485       26.1824994998
  H        10.3884333569        4.6780879002       25.4354721755
  H         9.6001161046        3.7203197304       26.8396747796
  C         7.6442153855        5.1113523384       25.4239488138
  H         8.5955949709        6.0534701265       27.1742621638
  H         9.3675950801        6.5221782085       25.6318253980
  C         7.2514826336        3.7848539156       26.1360036881
  C         7.9572337685        4.3948175308       24.1678717727
  C         6.3731217252        6.0038363634       25.2492296560
  C         7.3768761792        2.6415677946       25.3253943579
  C         6.7881389425        3.4908624657       27.4172196386
  C         7.8949922003        3.0468028167       24.0612492950
  C         8.4618128971        5.0683865293       23.0584516661
  H         6.6017798747        6.8124249584       24.5864826461
  H         6.0892568634        6.5808913766       26.1387895231
  C         5.1226355648        5.2923991899       24.7083851149
  S         7.0019141567        1.2371780948       26.2003831844
  C         6.6673712719        2.1336969203       27.6321046777
  H         6.6139677030        4.2732636580       28.1049800490
  C         8.2217978419        2.5064265029       22.8668093447
  H         8.6369094139        6.0911575285       23.2814106342
  C         8.8198395033        4.5295836736       21.9226131397
  H         5.2989605036        4.9405716824       23.7492845026
  H         4.8043550891        4.4658635625       25.3080402606
  C         3.9830705758        6.3067497123       24.5425977741
  C         6.2131435811        1.5323125147       28.9189705111
  C         8.7833978178        3.1572444082       21.7752104993
  H         8.1593148083        1.4585016721       22.7703394635
  C         9.2065996443        4.9677497151       20.6631313447
  H         3.4616099617        5.9392809439       23.7384080740
  H         4.4768769683        7.2368754133       24.1857743612
  C         3.1167717507        6.4395403922       25.7981428348
  C         6.1437275630        0.1198785907       29.1252453284
  C         5.8036802908        2.4173701360       29.9675203689
  C         9.2168645909        2.4449154622       20.5126294186
  C         9.3872012563        3.8832792142       19.8164947907
  S         9.4733839692        6.5007483122       19.8975329264
  H         2.6647363187        7.3592535817       25.8765515137
  H         3.7180965476        6.4244872272       26.7671992134
  C         2.1400492939        5.2525410461       26.0020994428
  N         6.4928498775       -0.9730412333       28.2607155927
  C         5.7626477126       -0.3032029906       30.4027461335
  C         5.4134800361        1.9517781000       31.2458635354
  H         5.7106630713        3.5058251642       29.8554360845
  C         8.1278717723        1.6633278634       19.7922575534
  C        10.5814077403        1.6723522213       20.6745410927
  C         9.8090496957        4.2978809275       18.5497638287
  C         9.7420865242        5.6942444700       18.4225531775
  H         1.5577806815        5.1224232254       25.1023906605
  H         2.7855449396        4.4938358772       26.3543059791
  C         1.1490754593        5.4159485527       27.1497224545
  S         6.2623027423       -2.3628187561       29.0694368081
  N         5.6607578531       -1.7310844919       30.4566611225
  C         5.4168177613        0.5345782561       31.5271824692
  H         5.1363489086        2.6967521264       31.9912155398
  H         7.8789561804        0.8778252770       20.4901443343
  H         8.6309687057        1.1364347752       18.9887072146
  C         6.8775876772        2.3381240911       19.2931163810
  H        10.9481220630        1.3135513885       19.7631483776
  H        10.2954788895        0.8574536267       21.3429265389
  C        11.7220767951        2.4227001352       21.3735309807
  H        10.0261623232        3.5620869288       17.8273772114
  C        10.1267189018        6.4427383700       17.1778349764
  H         0.5553912120        4.5829657236       27.2704434878
  H         0.5189296622        6.2165513508       26.9643582159
  C         1.9129114734        5.5228000910       28.4966444665
  C         5.1951551724       -0.0907260231       32.7593515511
  H         7.1140019996        3.0458517109       18.4813131018
  H         6.5155064445        2.9938034262       20.0975252631
  C         5.8542751613        1.2969586414       18.7910641399
  H        11.5810862543        2.3436316147       22.4395767333
  H        11.7656386198        3.4710666372       21.1779504915
  C        13.0206690145        1.6740843270       21.0306510178
  C        10.2316499322        7.8298221107       16.9850192591
  C        10.4673916970        5.5735379318       15.9515371695
  H         2.7688480764        4.8301891075       28.4947066482
  H         2.4117340103        6.5115329802       28.6753697779
  C         1.0465897887        5.3043240258       29.8335253103
  H         5.1264062127       -1.1511439003       32.7347184965
  C         4.9139211100        0.4019303136       34.0182294871
  H         5.4600903116        0.7744877091       19.6591775914
  H         6.4260488333        0.5621539824       18.2096932103
  C         4.7297341422        2.0095825794       18.1257255531
  H        13.1213013801        0.9878363431       21.9159273608
  H        12.9956857120        1.1374497201       20.0831849563
  C        14.2972984507        2.5971292761       21.0797742787
  N         9.9698065305        8.8044543303       18.0144234434
  C        10.6193505858        8.3786203885       15.8023229587
  C        10.6874928339        6.1927526195       14.7825155993
  H        10.4303521787        4.5115028196       15.9267454435
  H         0.3096368718        6.1652519297       30.0342144039
  H         0.6066302896        4.2908721338       29.7723874631
  H         1.6669069594        5.4228898015       30.7383868355
  S         4.7286404607        2.0834274696       34.5249459518
  C         4.7865792412       -0.5677686521       35.1254359315
  H         4.4095920998        2.9388836704       18.5620290466
  H         5.0708249146        2.2629925025       17.1835931565
  C         3.4038300427        1.1737657521       17.9302477842
  H        13.9578892129        3.5924194514       20.6746164521
  H        15.1255965275        2.3590042224       20.3922983127
  C        14.8743185664        2.7440419191       22.4842977816
  S        10.1513380968       10.2766246923       17.3136609172
  N        10.6059299908        9.7721254177       15.8622677071
  C        10.8911544146        7.6897628935       14.6301209276
  H        10.9822486387        5.6379305022       13.9096224719
  C         4.4149028741        1.4609248321       36.1476241982
  N         4.3236165101        0.0611132618       36.2546378606
  O         4.9928055884       -1.7529433185       34.9670951318
  H         2.6818523123        1.8309272092       17.4110407087
  H         2.9683220106        1.0653580178       18.9347290747
  C         3.7104078979       -0.1792262281       17.2003265803
  H        15.6332437187        3.5453017526       22.4879558738
  H        14.0378570203        3.0984448505       22.9874577903
  C        15.4392698485        1.4530654466       23.0135063501
  C        10.9744932183        8.3754399171       13.4036006523
  S         3.8766323093        2.3274101823       37.5399733438
  C         4.0979020665       -0.6656645222       37.4659108677
  H         3.0144825809       -0.1931459674       16.3443364999
  H         4.7323559743       -0.0599310922       16.7902345715
  C         3.3479663510       -1.5819991988       18.0191481556
  H        15.4308758136        0.7073318005       22.1101424453
  H        14.7847468281        0.9677317141       23.7312102292
  C        16.8585515527        1.4850763118       23.4936229389
  H        10.5811875282        9.3932291739       13.3894330003
  C        11.5409758564        7.9624324584       12.2300099803
  H         3.3133877410       -0.1077224434       38.0746796110
  H         3.7364073807       -1.6842026443       37.2221514374
  C         5.3552505541       -0.8262296136       38.3075145446
  H         3.8738675938       -1.4765647960       18.9855374845
  H         3.7153883059       -2.4800153583       17.4851503366
  C         1.8837365803       -1.6076932615       18.4250979764
  H        17.0305965140        2.3571310361       24.0836574096
  H        17.0452006414        0.6818210257       24.1518246814
  C        17.9068417468        1.4829779331       22.4073421421
  S        12.2849339730        6.4515609885       11.9759549977
  C        11.7049379133        8.9098634136       11.1258764697
  H         5.0987841445       -1.6677801672       38.8651411837
  H         6.2477933108       -1.0703829480       37.7213378016
  H         5.4943565706        0.0547891683       39.0309700655
  H         1.5409398072       -2.6719075916       18.3383953373
  H         1.1408444564       -1.0998685416       17.7539905465
  H         1.7086804117       -1.3633205967       19.4638779053
  H        18.8506079570        1.0382160885       22.6407390849
  H        18.0395507612        2.5491307643       22.2615990445
  H        17.5985323036        0.9988621438       21.5068646316
  C        12.7195393325        7.0404928132       10.4387888598
  N        12.3492163926        8.3139590784       10.1312334143
  O        11.3159074699       10.1027290502       11.1109973423
  S        13.4483996035        6.0658799973        9.1627738008
  C        12.4293517546        9.1260078965        8.9396863498
  H        12.7574588057       10.0583678478        9.1075135286
  H        13.0869983312        8.6727063962        8.1524737035
  C        11.1184012282        9.3592178173        8.2139100529
  H        10.2713829609        9.6830320786        8.8726044064
  H        11.0971448318       10.0624573784        7.4549642677
  H        10.7946225160        8.3770341855        7.8419094062
  H        -3.6596806180       15.4800720298       16.6395489776
  C        -3.6132811243       14.4477266943       17.0029317861
  H        -4.5588287729       14.2874609125       17.5191049825
  C        -2.4070719878       14.3789160077       17.9140469098
  C        -3.6004423790       13.4889040506       15.8340433937
  C        -2.5742304131       13.2113966536       18.9124165552
  H        -1.4763955134       14.2011954832       17.4128580577
  H        -2.2273323269       15.3240950319       18.4002286189
  H        -4.4113123239       12.7960591287       15.9421563600
  H        -3.7263130282       13.9041679284       14.8280106384
  H        -2.6576905597       12.9537382459       15.6137618601
  C        -1.4468435030       13.1690510045       19.9650981126
  H        -2.7045214115       12.2163168413       18.5237434705
  H        -3.4810029409       13.3407126964       19.4623563832
  C        -2.0079197433       13.1393405707       21.4059961827
  H        -0.7240486856       12.3413677089       19.8909787427
  H        -0.8742297704       14.0503701820       19.7593629718
  C        -1.0006320730       12.4757442802       22.4584514839
  H        -2.7919236872       12.3788359497       21.4415961091
  H        -2.3248460707       14.1728122076       21.7052740743
  C         0.1406162841       13.3786678125       22.8991677951
  H        -1.5221004416       12.3426590138       23.3289070763
  H        -0.7003652170       11.5317036755       21.9946752789
  C         1.3529377783       12.7516371330       23.4867811241
  H         0.4939763180       14.0506864804       22.0935013634
  H        -0.3818920519       14.2113162261       23.5169701781
  C         1.7142176695       11.4556933745       22.7512263460
  C         0.9142248390       11.9438728844       24.7047071593
  C         2.5625154413       13.7846060117       23.7009746470
  C         1.4324124323       10.3362763167       23.4919119044
  C         2.1524144020       11.1485627015       21.4648397908
  C         0.9929973856       10.6294932524       24.7516758606
  C         0.2971744309       12.5842546089       25.8126745189
  H         2.7541177807       14.2658172588       22.7357731455
  H         2.2950895948       14.4945376650       24.4495256572
  C         3.8776825282       13.1906980297       24.2262759179
  S         1.6024101662        8.8899629758       22.6406888619
  C         2.1345415088        9.7897765289       21.2252075543
  H         2.3984972318       11.8985549316       20.8329859377
  C         0.5382860556        9.9927489525       25.8401998491
  H         0.4547450861       13.6076101595       25.7789136034
  C        -0.0071709236       11.9710784877       26.9796622115
  H         4.1523102423       12.4564187933       23.5087471530
  H         3.6919067934       12.7361689231       25.1739338283
  C         4.9687652166       14.3020132099       24.3119778060
  C         2.5299157799        9.0538907996       19.9798512266
  C         0.0674317879       10.5920701821       27.0391440455
  H         0.5683185900        8.9116654793       25.7067447736
  C        -0.4280806530       12.3007740216       28.2511869576
  H         5.5496172958       14.1748161399       25.2654915108
  H         4.4547839376       15.2648695056       24.5064236714
  C         5.7949778482       14.2792531515       22.9563713970
  C         2.4474252434        7.6855145956       19.6638667905
  C         3.0394018305        9.9189378546       18.8290990675
  C        -0.4128987463        9.8940888698       28.2683226080
  C        -0.6573047352       11.2075190862       29.0545592215
  S        -0.7587252787       13.7445871058       28.9936280486
  H         6.4539588652       15.1288319784       23.0789329079
  H         5.2076261383       14.4271392860       22.0783371681
  C         6.5995732184       12.9075596709       22.6872099506
  N         2.0752633203        6.6449323440       20.5307113349
  C         2.7324757359        7.1842443968       18.3744087690
  C         3.3542679098        9.4122160153       17.5620502131
  H         3.2782457685       10.9665170689       19.0999994105
  C         0.7020707975        9.0590923436       29.0369337133
  C        -1.7518956812        9.1565131315       28.0575067216
  C        -0.8611827033       11.6153951366       30.3910686933
  C        -1.1380236949       12.8998291642       30.5121440043
  H         7.2547460674       12.8009509315       23.5972892109
  H         5.9452085458       12.0240993298       22.5585107382
  C         7.4510645724       12.9240004893       21.4360961856
  S         2.2058006950        5.2344344560       19.7171216875
  N         2.6856432318        5.8460552907       18.3320499958
  C         3.1528499021        7.9999414025       17.2903025512
  H         3.8572537207       10.1006088600       16.8947698027
  H         0.9661478234        8.3635804786       28.2536491036
  H         0.2934002162        8.5011559935       29.8196249324
  C         1.8969359173        9.9558010258       29.3594832672
  H        -1.5172225559        8.3470654603       27.3415878732
  H        -2.1899993411        8.5862292639       28.8425868647
  C        -2.8359256692       10.1105422244       27.4158755581
  H        -0.7942702468       10.9087557833       31.2055934205
  C        -1.3642894085       13.7120650878       31.7443275782
  H         8.0672635862       12.0287722464       21.2150844572
  H         8.2669000513       13.7135533444       21.4964502463
  C         6.7574868577       13.2366456872       20.1036158739
  C         3.3379376524        7.3140171376       16.0022446251
  H         2.2889408042       10.4485580926       28.4692849458
  H         1.7736707701       10.7004874340       30.2028688521
  C         3.0767330315        9.0627562670       29.7768267322
  H        -2.3657303129       10.6854101791       26.5519183407
  H        -3.1015341834       10.8383817486       28.1557833989
  C        -4.1291967188        9.4148514481       27.0078603163
  C        -1.4046337558       15.1156559907       31.8423254020
  C        -1.6406359496       13.0409239906       33.0532794339
  H         6.0196126491       12.4835255793       19.8966729089
  H         6.2331278394       14.2198742274       20.1961849047
  C         7.5771273578       13.4654062411       18.8386358171
  H         3.0532559318        6.2978852084       15.9242570268
  C         3.6846372505        7.7446092241       14.7008650683
  H         3.4580707580        8.7547767467       28.8507144492
  H         2.6945489781        8.2652417920       30.4152281129
  C         4.2059373128        9.9342904853       30.4847825998
  H        -3.9403857080        9.0802604940       26.0177502293
  H        -4.3492767759        8.5912207330       27.6479663536
  C        -5.2742452624       10.4407114553       26.9778055462
  N        -1.1339224184       15.9851367341       30.7625065613
  C        -1.8338070144       15.8305439476       32.9490625394
  C        -1.9932924922       13.6951607123       34.1997849815
  H        -1.5919267453       11.9273637089       33.0280960006
  H         8.1149900972       12.5238951006       18.6384220120
  H         6.9427714531       13.4516852859       17.9517629234
  H         8.2556393280       14.2593928954       18.8393576407
  S         4.0820029652        9.3245125883       14.3127671350
  C         3.8985377327        6.6658466953       13.6317487992
  H         4.4912571292       10.8030358550       29.7881029006
  H         3.8965733427       10.3394847923       31.3826138445
  C         5.4046034606        8.9843601692       30.9100052501
  H        -5.0655341065       11.2056003822       26.2489144428
  H        -5.3895990283       10.9704635967       27.9789758568
  C        -6.5474271431        9.7843296477       26.5296988835
  S        -1.3747457573       17.5732621439       31.2148248383
  N        -1.6385906028       17.2199332207       32.7593664215
  C        -2.1626237975       15.1710581489       34.1454532445
  H        -2.0537061420       13.1921097133       35.2014985509
  C         4.2550071843        8.6969672220       12.6739029455
  N         4.3256171561        7.2782383396       12.5557842656
  O         3.8343917537        5.4960156808       13.8938377647
  H         6.2745205547        9.4757411587       31.4096257067
  H         5.7699926509        8.6250109661       29.9454090424
  C         5.0762965095        7.8558607935       31.8807864441
  H        -6.3427960149        9.2091376875       25.6415048824
  H        -6.9529198859        9.1564706576       27.3328568607
  C        -7.5922435825       10.8543890245       26.2873979386
  C        -2.4800390724       15.9963443479       35.3282779810
  S         5.1029577518        9.5091167338       11.3612259642
  C         4.4387523796        6.6639082839       11.2857713458
  H         5.7874829188        7.7954773569       32.7389089308
  H         4.1217980991        8.0938918199       32.4337726812
  C         5.0153327136        6.4329788413       31.3537979845
  H        -7.3605950766       11.5659271214       25.5330228561
  H        -7.6362143131       11.2869092849       27.3098882076
  C        -8.9573343245       10.2944572431       25.9799106627
  H        -2.2083696062       17.0533040683       35.2216630615
  C        -3.1390881673       15.7447452561       36.4926315317
  H         5.1795107694        7.1804593334       10.6693612533
  H         4.8039606708        5.6025274953       11.3943095654
  C         3.0585778276        6.5841145369       10.5879622507
  H         5.1033463043        6.3743661493       30.2587005416
  H         4.0569910216        6.0378065815       31.5201603493
  C         6.0261623366        5.4797795359       31.9575539220
  H        -9.2496582222        9.4680006432       26.6189585478
  H        -9.7107031801       11.0638315355       25.9685073173
  C        -8.9527936701        9.7102913877       24.5523980140
  S        -3.9584489090       14.2899531152       37.0130877579
  C        -3.1685641750       16.8010029217       37.4762796912
  H         3.0986618028        6.1809963966        9.5293409407
  H         2.3372139668        6.0927486613       11.2324033922
  H         2.6989949176        7.5924450545       10.4284136369
  H         6.6824451404        5.9594372220       32.6505765835
  H         6.6203086118        4.9211036185       31.2196554958
  H         5.5494995833        4.7380641878       32.5683455176
  H        -9.9808206643        9.4310671852       24.3732972978
  H        -8.4163061800        8.8102338685       24.5501966494
  H        -8.6788394714       10.4553340841       23.7654588692
  C        -4.2140896717       15.0751938811       38.5604598312
  N        -3.8954573132       16.3904554346       38.5634178665
  O        -2.5246957094       17.8239756475       37.3243921026
  S        -4.9985654546       14.2918754613       39.9462322518
  C        -4.0673732222       17.2863155570       39.7226855523
  H        -4.0905118340       18.2984700817       39.3302769362
  H        -4.8750827605       17.0893644129       40.3356484868
  C        -2.8327634833       17.1295576497       40.5660258504
  H        -2.3603409496       18.0798423026       40.8199796455
  H        -3.2067541547       16.6879208088       41.5053964354
  H        -2.1843969694       16.4355996690       40.0829120636
