352
 i =    30100, time =    30100.000, E =        24.6894904544
  H        12.2092351493        6.9054839671       32.6541304388
  C        11.7170140943        5.8920876441       32.5787323907
  H        12.4496302960        5.2055512287       32.1013053974
  C        10.5039063067        5.8398684985       31.6365198120
  C        11.2236755171        5.5354712104       33.9650445841
  C        10.7385742680        6.3604449565       30.2451339310
  H        10.2943071740        4.7823200974       31.5831090670
  H         9.5292220068        6.1543806608       32.0481310577
  H        11.9799285180        5.7507661785       34.7313227688
  H        10.2669736837        5.9669379050       34.1627418757
  H        11.0586726730        4.4717340257       34.0110586260
  C        10.2686497464        5.4140055429       29.1183044691
  H        11.8355263245        6.4511288393       30.1068761366
  H        10.3243585893        7.3896662489       30.2275747633
  C        10.4337072857        6.0541706545       27.7422930212
  H        10.7331843270        4.4376390037       29.1375937105
  H         9.1540218615        5.2220558027       29.1354782319
  C         9.6735618952        5.3307908817       26.5807267434
  H        11.5081431232        6.1680142005       27.4538900795
  H        10.1464818260        7.0716027362       27.7738783126
  C         8.5043902826        6.2526668652       26.1238878530
  H        10.3547654023        5.2452321595       25.7057594662
  H         9.3539158751        4.4596495268       27.0603989312
  C         7.3733561990        5.4316854911       25.5452090991
  H         8.1017446579        6.7488117946       26.9981203128
  H         8.7079020719        7.1382391283       25.4682239727
  C         7.1122409560        4.0442228054       26.2300771402
  C         7.9185633774        4.6812642098       24.3772182070
  C         6.0767704040        6.2711845470       25.2229596224
  C         7.3563184900        2.9253901599       25.5065367133
  C         6.4674617050        3.6982498717       27.4523017018
  C         7.8149396388        3.3027425861       24.2842421820
  C         8.2989290155        5.3489583228       23.1871922028
  H         6.2345032586        7.1446420517       24.5157273251
  H         6.0021573336        6.8221224766       26.1381559230
  C         4.9444922653        5.4536134239       24.7233043115
  S         6.8053172391        1.4838720482       26.2723349950
  C         6.3356769293        2.3533562022       27.7183257915
  H         6.0335760161        4.4791828342       28.0990952030
  C         8.1907976600        2.7173594435       23.1399465268
  H         8.3418649062        6.4459882212       23.1161218891
  C         8.5352439321        4.7357864716       21.9882327423
  H         5.2551827804        4.9881450552       23.8192016289
  H         4.8402399517        4.6854215872       25.4706518197
  C         3.6247006056        6.2443427354       24.5116241355
  C         5.7352063680        1.6933305776       28.9219994535
  C         8.5003142540        3.3735154820       21.9069275645
  H         8.2566715762        1.6649080494       22.9135481063
  C         8.9765107001        5.1000033626       20.7203219698
  H         2.9665733296        5.5460913412       23.9336513776
  H         3.8922137246        7.0809904713       23.8778454368
  C         2.9114803283        6.5575643912       25.8685956338
  C         5.7430923012        0.3200379728       29.1709197831
  C         5.3214865388        2.5841421813       30.0554902028
  C         8.8105992360        2.7001341983       20.5961756727
  C         9.0931839381        4.0229835956       19.8814410388
  S         9.3725297917        6.6024916760       19.9490947436
  H         2.1972319199        7.4097887265       25.9108541909
  H         3.5959314228        6.8856321175       26.5778697507
  C         2.1662388478        5.3306811092       26.4957234009
  N         6.1340867305       -0.6285854545       28.2458389242
  C         5.4743640013       -0.2383276405       30.3585990060
  C         4.9024199736        1.9721862048       31.2537562167
  H         5.2443084068        3.6433466056       29.9700584874
  C         7.6038798765        1.9229441602       20.1193688900
  C        10.1248084963        1.9132139874       20.5774559358
  C         9.5026423259        4.3981947748       18.6298602209
  C         9.6568807655        5.7464176884       18.4499586015
  H         1.2924986352        5.0558860407       25.9619136945
  H         2.8138470915        4.4540847545       26.4653715776
  C         1.5955648176        5.5309532840       27.9046587910
  S         6.0548051860       -2.1036052546       28.8439728137
  N         5.4747439486       -1.6257619263       30.2885509508
  C         5.0962438489        0.5153232852       31.4721652166
  H         4.4751474917        2.5727650630       32.0356349329
  H         7.3857158976        1.1421699779       20.8855547914
  H         8.0156558702        1.3582058185       19.2274506897
  C         6.3045338394        2.7281829799       19.7497355481
  H        10.3648664317        1.3667335511       19.6274412022
  H        10.0927294788        1.1698960777       21.3543995218
  C        11.3587678415        2.7643905340       20.8115460682
  H         9.6432950864        3.6272132103       17.9341915258
  C         9.9543382839        6.4675431514       17.2023713798
  H         1.1871604525        4.5340846985       28.0141552732
  H         0.8408051440        6.3232311439       27.9367508692
  C         2.6640544059        5.7454053033       28.9390961725
  C         4.6734014610       -0.2319200730       32.6833313930
  H         6.4806376087        3.3353255581       18.8627456917
  H         5.9638688694        3.4479631319       20.5074533325
  C         5.1503224421        1.8090518691       19.3723767620
  H        11.2441297977        3.5850994871       21.5717742783
  H        11.5109554164        3.2766683194       19.8643356008
  C        12.6493391681        1.9434828516       21.0524564974
  C         9.9508953509        7.8604982957       16.9127799441
  C        10.2326520643        5.5970758469       15.9639122753
  H         3.6129086453        5.1217153335       28.8639107896
  H         3.1735807974        6.6944236813       28.7421358154
  C         2.0825859058        5.6945154762       30.3334917901
  H         4.6584545545       -1.2977637343       32.5037175273
  C         4.4967098187        0.1484264492       34.0172558748
  H         4.4794226985        1.6390532850       20.2167353033
  H         5.5949618017        0.8633190645       18.9977489621
  C         4.1850725451        2.5177090090       18.3578994191
  H        12.5337507401        1.2870411073       21.8973699125
  H        12.9507949985        1.3006462723       20.2092814886
  C        13.9020150888        2.8496680629       21.3181179314
  N         9.6567538406        8.8316295253       17.8599510953
  C        10.4124257547        8.3738604868       15.7091032746
  C        10.4842213350        6.1014456192       14.7110715752
  H        10.1742608913        4.5637233884       16.0265693854
  H         2.7956214763        5.4381814242       31.0372176557
  H         1.7657684560        6.6625124358       30.8401886706
  H         1.2432068173        4.9736196584       30.4006528827
  S         4.4494529496        1.7733882026       34.7069797954
  C         4.4877352203       -0.8956916456       35.0486666449
  H         4.0386019920        3.5494376581       18.6817596785
  H         4.7883493950        2.6550687055       17.4124849307
  C         2.9326652136        1.7884064733       17.9342574820
  H        13.6666350387        3.8400922656       20.9257524159
  H        14.7327667617        2.5545210049       20.7722443278
  C        14.2311251219        3.2224950292       22.8427274845
  S         9.9496331652       10.2620641276       17.2011236975
  N        10.4494169700        9.7515935192       15.7430688558
  C        10.6542129374        7.5448613169       14.5753722595
  H        10.5965576453        5.4448817286       13.8960777345
  C         4.2741456836        0.9773412522       36.2634555169
  N         4.2785890531       -0.3375344365       36.2869964019
  O         4.6247252451       -2.1024187233       34.8279975624
  H         2.3767344304        2.5103922473       17.3760001996
  H         2.4004029680        1.4636651071       18.8076763018
  C         3.2202170131        0.6645308634       16.8821549931
  H        14.6804927076        4.2118477414       22.7807380925
  H        13.3339750419        3.1521993049       23.4145812799
  C        15.2169211873        2.2293446547       23.3709283207
  C        11.0513377193        8.1635021523       13.3541809988
  S         3.9558967881        1.6686218762       37.8671276710
  C         4.3850175412       -1.1805781733       37.4889919579
  H         2.4588009659        0.6118852831       16.1222098008
  H         4.1128677089        0.9017178903       16.3261357365
  C         3.3292253709       -0.7779111952       17.4469635226
  H        15.3743696403        1.3419708560       22.7845312533
  H        14.7360185254        1.6852805315       24.1799887192
  C        16.6128743335        2.8158538099       23.6083606474
  H        10.9339191644        9.2414502643       13.3283038408
  C        11.4304308454        7.6364266565       12.1597121805
  H         3.7645268423       -0.7930288932       38.2587059718
  H         3.9723589706       -2.1525075126       37.3115590907
  C         5.8022301989       -1.3386671001       38.0068122631
  H         3.5131343948       -0.8404209039       18.5281775034
  H         4.2226804517       -1.1830657163       16.8989814303
  C         2.2087151330       -1.7633572686       17.1086110816
  H        16.6297839050        3.7313401735       24.1473871115
  H        17.1930773700        2.0896161821       24.1570406881
  C        17.3115349793        2.8640405599       22.2682677654
  S        11.8224411837        6.0084237727       11.7273645717
  C        11.6567111504        8.6345433132       11.0609564298
  H         6.3074041661       -1.8927413699       37.1450335037
  H         6.3953756103       -0.4356046847       38.2024293114
  H         5.8208997052       -1.9429233754       38.9643479056
  H         2.2233864661       -2.6778397819       17.6725385703
  H         2.3075487705       -1.9019174189       16.0051987769
  H         1.2667570235       -1.2826511352       17.3267232188
  H        16.8844206176        3.7411950317       21.7715109881
  H        17.2028247649        1.9022222846       21.7070514921
  H        18.3397007454        3.0036179975       22.5170594580
  C        12.3303252017        6.6274525421       10.1468784187
  N        12.3558179554        8.0050296891       10.0429113996
  O        11.4591035402        9.8591205354       11.1384848377
  S        13.1186130193        5.7500506570        8.8542112743
  C        12.6779138088        8.8041970699        8.9071245847
  H        13.1957940689        9.7200614109        9.2430169475
  H        13.3978646228        8.3443475773        8.2983454615
  C        11.4469471249        9.1615370831        8.0579727469
  H        11.2832237692       10.2717645398        7.8898753490
  H        11.4944079807        8.6932744713        7.0557140332
  H        10.5913933717        8.6966702208        8.6251194743
  H        -1.7105233502       13.9565779898       16.0537289762
  C        -2.7645166141       13.6242529121       16.2733733196
  H        -3.4654931538       14.5251814982       16.2309863709
  C        -2.9383335390       12.8927116094       17.5995368942
  C        -3.1482036805       12.7558073983       15.0690703626
  C        -2.6562650708       13.8239661772       18.7703509925
  H        -3.9495147210       12.3423626639       17.6162523290
  H        -2.1854518642       12.0694644197       17.5236035317
  H        -2.4336044600       11.9450514642       14.8538263328
  H        -4.0776059627       12.3094542567       15.2162175640
  H        -3.1666901723       13.3295187374       14.1787256295
  C        -1.7957193032       13.2053282092       19.8080724917
  H        -3.5312476773       14.2793597964       19.2604321271
  H        -2.0198120750       14.6499982194       18.4052544988
  C        -2.1320392113       13.4913732859       21.2722606348
  H        -1.7444304694       12.1320735391       19.6113079206
  H        -0.7849005992       13.4571160937       19.5158071990
  C        -1.2520340889       12.7794493093       22.2130943197
  H        -3.0528501439       12.9849581369       21.5129159346
  H        -2.2921544158       14.5043915750       21.5351387493
  C        -0.0127606561       13.7352773093       22.5195495192
  H        -1.7724753189       12.6020063600       23.1162498365
  H        -0.8737134872       11.8947982908       21.7258117870
  C         1.1584839602       13.0577920003       23.2089962552
  H         0.3580343446       14.0327028149       21.5976070376
  H        -0.4338875196       14.5470096481       23.0822541346
  C         1.5556580213       11.6966933352       22.5299526011
  C         0.7639097515       12.4190406699       24.5376196659
  C         2.5017471618       13.9170039084       23.2754258962
  C         1.3447297947       10.6433696902       23.4128590262
  C         1.9935462160       11.3351700848       21.2427606394
  C         0.8885885890       11.0354361277       24.6524054167
  C         0.2633043873       13.0917762858       25.6619578222
  H         2.7182470614       14.2207123088       22.2184968030
  H         2.3389116560       14.7952681432       23.9661270112
  C         3.7598297581       13.1966102733       23.7588901259
  S         1.7398251781        9.1244012732       22.6625129699
  C         2.0394360092        9.9866345322       21.1224918887
  H         2.0089980699       12.1361736144       20.4897107704
  C         0.4654186766       10.4284896086       25.8154772021
  H         0.2906613819       14.1822401418       25.6484885390
  C        -0.1671421134       12.4539391648       26.8222298861
  H         4.1717606822       12.3735069181       23.0866200721
  H         3.5548746718       12.6859697604       24.6970736673
  C         5.0497239351       13.9637312676       23.7785118752
  C         2.4572847352        9.2396141644       19.8801690560
  C        -0.1056396115       11.1438276283       26.9187771459
  H         0.5170256833        9.3923959323       25.9329801576
  C        -0.6321873422       12.8354485651       28.0183122225
  H         5.8664913286       13.4039057899       24.2338481202
  H         4.9698472825       14.8964245177       24.4046346609
  C         5.5486231634       14.2725094793       22.3443639427
  C         2.4204521804        7.8370044704       19.6627936052
  C         2.8174397457       10.0411516041       18.7129960763
  C        -0.6140799149       10.4255879780       28.1603606114
  C        -0.9451468821       11.7560436792       28.8096481120
  S        -0.8942508075       14.3289527782       28.8429972202
  H         6.3162565539       15.0419032296       22.3988800757
  H         4.7110801048       14.6908295922       21.7349159870
  C         6.1996474987       13.0498229817       21.5996691454
  N         2.0219410752        6.8515378777       20.6168494237
  C         2.6121340104        7.2951526699       18.4275189384
  C         3.1040544781        9.5329689441       17.4721873295
  H         2.9114239356       11.1172820032       18.8762069550
  C         0.3981822729        9.7505446626       29.0950659360
  C        -1.9510512495        9.6302521849       27.8343861881
  C        -1.5451868490       12.1556378502       30.0397540620
  C        -1.5052402376       13.4942055252       30.2330719012
  H         6.4389055924       12.1671640661       22.1643520578
  H         5.5479150007       12.5979353272       20.9351761665
  C         7.4903715564       13.3762995765       20.7740603696
  S         2.0922273055        5.3918943172       19.8875384467
  N         2.4972563348        5.9171023799       18.4025332475
  C         2.8847102116        8.0874328981       17.2896957326
  H         3.2944022874       10.1343083648       16.6537117870
  H         0.8345297648        8.9725276585       28.4597909508
  H        -0.2364163389        9.1843074549       29.8474139959
  C         1.5314330454       10.6120798044       29.5792518285
  H        -1.7193834576        9.0343350650       26.9557609503
  H        -2.0921049082        8.9073492233       28.6007828628
  C        -3.2660437768       10.3366902308       27.5138250146
  H        -1.8586412404       11.3575084611       30.8039816167
  C        -1.9171297295       14.2444523158       31.5287165109
  H         7.9880291532       12.4697860549       20.4164475347
  H         8.0895058394       13.8290586435       21.5647273762
  C         7.1614236479       14.3099034032       19.6247845202
  C         3.0904111558        7.3530060727       16.0872636840
  H         1.8474204018       11.4271567108       28.9113759752
  H         1.1665473456       11.1174106010       30.4977461773
  C         2.7764783684        9.8724362284       30.0670926008
  H        -3.1888075985       10.8212720554       26.5634138044
  H        -3.3547265666       11.1786392701       28.1559461831
  C        -4.4795692078        9.3740480528       27.5056799593
  C        -1.9623054076       15.6728092531       31.6871574609
  C        -2.0098920947       13.4508091100       32.7676081756
  H         6.2761267103       14.8257625288       19.8831198923
  H         8.0320732086       14.9529671968       19.3354853110
  C         6.9595040653       13.5656410801       18.3205080243
  H         3.0518544858        6.3305795146       16.1674055973
  C         3.5027653811        7.7064550121       14.8277773091
  H         3.2537085887        9.3645209124       29.2241320476
  H         2.4472751678        9.3293734783       30.8860525753
  C         3.8382356598       10.7805056143       30.6708862639
  H        -4.3311774117        8.6073512633       26.7409857710
  H        -4.7120304705        8.8936139602       28.4341130926
  C        -5.8029120670       10.0873988816       27.2588028602
  N        -1.7367797874       16.5698690115       30.6127363274
  C        -2.1468055549       16.2288031444       32.9100514101
  C        -2.2357766866       14.0015250040       34.0297051346
  H        -2.1136465089       12.4349001005       32.6169152335
  H         7.9583987383       13.2182674249       17.9413775110
  H         6.5257873765       12.5628911706       18.4872307313
  H         6.5006502411       14.2188543378       17.5995081442
  S         3.9615479447        9.2361783584       14.2373102924
  C         3.4370267172        6.6445459168       13.8056000272
  H         3.9451457215       11.6947821690       30.0983418751
  H         3.5167058484       11.0932741437       31.6286470553
  C         5.2014907015       10.1788463760       30.9137390458
  H        -5.8973867943       11.0899798461       27.8109531753
  H        -6.5808098348        9.4708163363       27.7652013986
  C        -6.1643298352       10.1797448123       25.7583470382
  S        -1.7376282625       18.1113565060       31.3134012882
  N        -1.9681565406       17.6417548017       32.8217470847
  C        -2.3034308625       15.5026175076       34.1109576543
  H        -2.4115077251       13.2659043409       34.7574203172
  C         4.4597757229        8.4327791144       12.7346993132
  N         4.0745840830        7.1402929129       12.6778138580
  O         3.1213487840        5.5229584843       14.0120447151
  H         5.8321780173       10.9229961187       31.4692295451
  H         5.8616801904       10.0891824820       30.0095828251
  C         5.1766266547        8.8707672887       31.8183514489
  H        -5.4146558343       10.7979159648       25.3192677567
  H        -6.0775105339        9.2329249895       25.3426336636
  C        -7.5983002193       10.6781562005       25.5877367441
  C        -2.5410992886       16.3099175878       35.3028857269
  S         4.8286806628        9.2415876211       11.2493886395
  C         4.2230722098        6.3738929080       11.3956233134
  H         5.7211418816        9.1436391918       32.6749070727
  H         4.2349363795        8.6293657858       32.2480655954
  C         5.8084110866        7.6343758662       31.0663869304
  H        -7.6070242022       11.0801179735       24.6207493528
  H        -7.8011332577       11.4854607927       26.2430201383
  C        -8.5569823226        9.5436917983       25.7215872895
  H        -2.2780008027       17.3473875484       35.2832023500
  C        -3.0819071087       15.9150338752       36.5008608518
  H         5.2537251152        6.5956791971       10.9663476533
  H         4.3061759879        5.3467785605       11.6430186705
  C         3.0385695418        6.6453262683       10.4687571577
  H         6.6447112595        8.2290837891       30.6325572985
  H         5.2932637524        7.2833911772       30.1528414589
  C         6.4858627583        6.5010380829       31.8779895900
  H        -8.6831474488        8.9736951255       24.7809961979
  H        -8.1163990957        8.7627633267       26.4047892314
  C        -9.9240730411        9.9842356901       26.2269871703
  S        -3.8638494617       14.4194161308       36.7266901854
  C        -3.0919216302       16.8441784926       37.6763382109
  H         2.1743039947        6.6964036193       11.1128745755
  H         3.0995735090        7.6480768093       10.0521669652
  H         2.8142692236        5.9025740184        9.6852856818
  H         7.0680801130        6.7746149309       32.7653840031
  H         6.9838337774        5.7637384862       31.2019977397
  H         5.6290561344        5.9204625117       32.2860776628
  H       -10.5369045970        9.2160042638       26.6538444629
  H       -10.4768627485       10.5586976404       25.4327775458
  H        -9.7676050929       10.8485199671       26.8976189119
  C        -4.1067855888       15.0185096049       38.4198251581
  N        -3.7542844541       16.2721384972       38.6722834497
  O        -2.6354208665       18.0016515145       37.7208832898
  S        -4.8862580898       14.1053906343       39.6459103039
  C        -3.9475458100       16.9189196388       39.8998819009
  H        -4.1566841239       17.9881679170       39.6722388414
  H        -4.8563470522       16.6264574852       40.4564588690
  C        -2.7430407665       16.8512247306       40.8128478025
  H        -1.7644058516       16.6932700276       40.3731847145
  H        -2.5973457290       17.7939098268       41.3098517999
  H        -2.9602880034       15.9868524247       41.4322878878
