352
 i =    43700, time =    43700.000, E =        25.4436394322
  H        12.2570018259        6.5666844208       32.0879488404
  C        11.3368405104        5.9658098134       32.3151010044
  H        11.6201674221        4.9438282613       32.3953736687
  C        10.4869911897        6.2011372702       30.9974509210
  C        10.6654946789        6.2727647111       33.6570750252
  C        11.2297062799        5.8684037716       29.6591146510
  H         9.5342655744        5.6543393150       31.0457319980
  H        10.2484634298        7.2730660797       31.0030811793
  H        11.3436656091        6.7548506411       34.4019737746
  H         9.8331826688        6.9561210398       33.3900746169
  H        10.2887958820        5.2759990571       34.0885281955
  C        10.3926843216        5.3406811283       28.4646794319
  H        11.8980879602        5.0038839082       29.9932769385
  H        11.7451365778        6.7355072425       29.4321885350
  C        10.9853059430        5.6426253812       27.0688083303
  H        10.3891751597        4.2816994844       28.5125991398
  H         9.4059888551        5.8045930957       28.5313889534
  C        10.1130434961        5.0865193085       25.9610223221
  H        11.9321033041        5.0603425404       27.0438870972
  H        11.1429849188        6.6771400838       26.8292177212
  C         8.7502744821        5.8106758794       25.8023311589
  H        10.5742861735        5.1288256294       25.0848240290
  H         9.9143493283        4.0064389844       26.1711676632
  C         7.6721182521        5.0392487734       25.1242503852
  H         8.1459462985        5.9748033708       26.7288269884
  H         8.8747244339        6.6631103671       25.2835282376
  C         7.2841158638        3.7429619324       25.8469708315
  C         8.0460883015        4.3620865682       23.9032361075
  C         6.3772324468        5.8682608436       24.9017759203
  C         7.4297266610        2.6516794241       25.0231919131
  C         6.7629536195        3.4344302227       27.0956306630
  C         7.9683016973        2.9733508876       23.7779998759
  C         8.2246341148        5.0429538825       22.7315476072
  H         6.6122564940        6.6940100973       24.2169014860
  H         6.1600687409        6.3235698416       25.8963084049
  C         5.1294522007        5.0642272031       24.4346026903
  S         6.9439330277        1.1788976734       25.8584265521
  C         6.5355270470        2.0710476939       27.2359225743
  H         6.6050750141        4.2192676513       27.8155559184
  C         8.3053981524        2.3721403378       22.6398036069
  H         8.2623533196        6.1482638021       22.8799315300
  C         8.5498766035        4.5076720052       21.5419140634
  H         5.2986621030        4.5871289382       23.4690061893
  H         4.9624840682        4.1994428645       25.0700438256
  C         3.9458083748        5.9623396132       24.2350007038
  C         6.1062731402        1.3959668340       28.4464461779
  C         8.5655816531        3.1058947306       21.4607764468
  H         8.4284506246        1.3140090723       22.4825307960
  C         8.8829175424        4.8763335030       20.2509855799
  H         3.2142107513        5.3111526797       23.7691002519
  H         4.1083586178        6.8354694810       23.6658630319
  C         3.3348026112        6.4149703785       25.4998378391
  C         5.9652040849       -0.0123722523       28.6976509784
  C         5.6364532273        2.2054938686       29.5657260204
  C         8.7859018911        2.3880476685       20.1868930674
  C         9.0286573054        3.7262656870       19.4648795690
  S         9.0760995666        6.3353611758       19.4530762407
  H         2.6359464918        7.1910091725       25.3695256318
  H         4.1300513864        6.7422303086       26.1876219350
  C         2.7026479325        5.1768183019       26.1830740622
  N         6.1229428720       -1.0222802019       27.6932754506
  C         5.5930478393       -0.5444944611       29.9016302131
  C         5.2540796715        1.6736167252       30.8140259228
  H         5.4689286235        3.2512058676       29.3925370700
  C         7.5073322339        1.5995691694       19.5870385241
  C        10.0869220253        1.6083986407       20.1082326155
  C         9.3324557267        4.0699364801       18.1554382326
  C         9.4071322764        5.4672586019       17.9949014048
  H         2.0206871713        4.6331239498       25.5348856654
  H         3.5953440483        4.4951758271       26.3986926226
  C         2.0682592825        5.4918526011       27.4448978449
  S         6.0195826482       -2.4935282117       28.3636211236
  N         5.7263118694       -1.9533942583       29.8726617800
  C         5.3454971378        0.2578058798       31.0401376339
  H         4.8255087116        2.3325228070       31.4995658069
  H         7.2282343509        0.6774943276       20.1763369550
  H         7.7837617058        1.2820845215       18.5452701514
  C         6.2011969348        2.3167757375       19.5285442879
  H        10.3562119461        1.2022609144       19.1164943502
  H        10.0317536056        0.7258457558       20.7396182837
  C        11.3159059297        2.3386568395       20.7152042470
  H         9.3572713966        3.3243102903       17.3882614271
  C         9.8261628014        6.1517037953       16.7219499116
  H         1.4211510741        4.5926218967       27.6149446435
  H         1.4256586518        6.3667985370       27.3598654470
  C         2.9671858725        5.5194129148       28.6157511387
  C         5.1661575021       -0.4323397118       32.3179488089
  H         6.3440829030        3.3300353712       19.0677865642
  H         5.8336225332        2.3567416993       20.5437587980
  C         5.2891900846        1.6929396331       18.4668810422
  H        11.0210595757        2.5632964233       21.6948763772
  H        11.5370834528        3.2307842584       20.1805716817
  C        12.5363823200        1.3999413195       20.7403640300
  C         9.9796218091        7.5361595552       16.5933477343
  C        10.2393528737        5.4000997206       15.5303930659
  H         3.7823442345        4.7067567658       28.6055658673
  H         3.4615267994        6.5099107829       28.5109859153
  C         2.2338985257        5.5307269098       30.0049546471
  H         5.1973020888       -1.5002794890       32.3363543005
  C         4.9345934622       -0.0482923160       33.6033858932
  H         5.3672354727        0.6038319738       18.5103702702
  H         5.5162400296        2.0406429185       17.5165919030
  C         3.7719239720        1.9529814149       18.7740592121
  H        12.5106665304        0.8766147070       21.6597818808
  H        12.6025623172        0.7245893894       19.9622548978
  C        13.8028133396        2.2429909760       20.5379905811
  N         9.6024759939        8.4881863226       17.5163600103
  C        10.3600245148        8.1119680517       15.4065834971
  C        10.6269671824        5.9923453636       14.3057435920
  H        10.0921110537        4.2933194903       15.5988555698
  H         2.0759165908        4.5287834594       30.4117206568
  H         2.8070284169        6.0023124323       30.8126942800
  H         1.2417078904        5.8766171960       30.0750827578
  S         4.6947947659        1.5811870396       34.1486390982
  C         4.7215493524       -1.0497584236       34.6786868281
  H         3.7185150202        2.6526600375       19.6377405761
  H         3.3900221978        2.5831484347       17.9722370810
  C         2.9239831534        0.7618088459       19.0348724143
  H        13.6430197921        2.8758113348       19.6462266309
  H        14.7021093337        1.6309991736       20.4434312965
  C        14.0879111128        3.0111655671       21.8584754648
  S         9.8942643845        9.8943201712       16.9893813335
  N        10.4455129344        9.4580592453       15.5269381224
  C        10.6466914590        7.4302667044       14.1925698330
  H        10.8210485459        5.3522467749       13.3912470491
  C         4.3642229352        0.8778801579       35.7453473105
  N         4.3148221137       -0.4528899788       35.7800149722
  O         4.6536643316       -2.2514339212       34.4803765054
  H         1.9381067079        1.1541026164       19.3077030213
  H         3.2394419112        0.1253603346       19.8635405639
  C         2.6281728748        0.0022725270       17.7281059179
  H        14.7109433299        3.8427532485       21.7654571974
  H        13.2151542187        3.3377964263       22.3676180214
  C        14.7787812373        2.0787609253       22.8569638583
  C        10.8985394926        8.1918133811       13.0282878188
  S         3.9581761267        1.8518143835       37.2471478221
  C         4.2600875281       -1.1361518597       37.1207122326
  H         1.6630159279        0.2410897584       17.2465246352
  H         3.3196579232        0.5115445585       17.0054707496
  C         2.8395705059       -1.5476874939       17.7888045026
  H        14.6039425320        1.0386023981       22.9331154013
  H        14.3911640749        2.3415312670       23.8075343687
  C        16.2850602036        2.3988950071       23.1196473947
  H        10.4959629685        9.1840072188       13.0466346646
  C        11.5020480486        7.9218942192       11.8272679354
  H         3.4593353690       -0.6401778316       37.7593689750
  H         3.7807307015       -2.1284626418       36.9350539187
  C         5.7096797218       -1.1100755709       37.6739544067
  H         2.5757822027       -2.0308634940       18.7589364000
  H         3.8756654622       -1.7201515784       17.4424923511
  C         1.8913401780       -2.2723539166       16.7825861417
  H        16.3864014819        3.4690027916       23.4199457796
  H        16.4986830347        1.9064803067       24.0456917073
  C        17.3078568934        2.0014819599       22.0023785609
  S        12.4760340511        6.5873014794       11.5555743492
  C        11.5471700320        8.9582942239       10.7838214290
  H         5.8680183913       -0.2383523834       38.3041745745
  H         5.8200264740       -2.1103224996       38.1727511057
  H         6.4393290763       -1.1772076268       36.9214660920
  H         2.5091811060       -3.1017705608       16.3537127988
  H         1.6436333267       -1.6070442326       15.9116325525
  H         0.9794769034       -2.6067980272       17.2808264523
  H        18.2913649369        2.3391116219       22.2868339297
  H        17.0701473167        2.5064769063       21.0778717408
  H        17.4044539204        0.9255814381       21.7360814451
  C        12.7879794202        7.3180697473        9.9886414114
  N        12.4136096605        8.6252257459        9.8567823732
  O        10.9326474412       10.0007647763       10.9218645427
  S        14.0162447808        6.7055229894        8.9183860206
  C        12.6134032079        9.4208094616        8.6577926063
  H        12.7634076579       10.5383248270        8.8516421944
  H        13.4978596996        9.1942577647        8.2265960205
  C        11.4075728319        9.0285134280        7.7041557219
  H        11.5724855226        8.0334528377        7.2971626181
  H        10.4913759365        8.9057339281        8.2528687327
  H        11.1676735555        9.7858923476        6.9780571769
  H        -1.5666813137       12.9006577465       17.3927578717
  C        -1.9070385947       13.8528790816       16.7885146419
  H        -0.9942491944       14.3883147633       16.5099946686
  C        -2.5717581010       14.7371816408       17.8847975128
  C        -2.8797457213       13.3158128545       15.7250912748
  C        -3.2391167380       13.9444629110       19.0415016989
  H        -1.9034153667       15.5465389515       18.3080109483
  H        -3.2912422946       15.3028727358       17.2349189774
  H        -2.2256464458       12.8333381196       14.9527417917
  H        -3.5518472830       12.5875415349       16.2331210245
  H        -3.4913115625       14.0663161114       15.2705516658
  C        -2.2113750509       13.1258862595       19.7916956742
  H        -4.0221570473       13.2705019340       18.6882362683
  H        -3.7861469718       14.6664044459       19.7355938621
  C        -2.4047728038       13.1673847773       21.3305971352
  H        -2.3349865456       12.1073140830       19.4763691344
  H        -1.1903441301       13.4813088210       19.5194749354
  C        -1.2945363169       12.5304628055       22.1804616372
  H        -3.4437018636       12.7928496512       21.5585539833
  H        -2.3342266879       14.2688391512       21.4366608518
  C        -0.0619127676       13.3887456483       22.2793284387
  H        -1.6786278325       12.2961119140       23.1187160976
  H        -0.9981445433       11.5228657491       21.8115741548
  C         1.0619083215       12.6414544299       23.0953625837
  H         0.3361727428       13.7299974660       21.2939205933
  H        -0.3512435788       14.2482932977       22.8143992599
  C         1.4605619374       11.3389245370       22.4546022593
  C         0.6321012153       11.9611430179       24.3689275061
  C         2.3007908727       13.5596570229       23.2404139562
  C         1.2203601706       10.2365750400       23.3085572433
  C         1.8484914354       10.9907429045       21.1355251551
  C         0.6772662973       10.6022762878       24.4791450956
  C         0.1587007247       12.6789576062       25.4933645475
  H         2.6048948185       14.1629288078       22.3508011643
  H         2.1606954779       14.3267932155       23.8988227320
  C         3.5020648618       12.8103482334       23.8115637885
  S         1.7650825604        8.7314388625       22.5151165620
  C         2.1293861683        9.6193117227       21.0551002981
  H         1.9991995621       11.7764913435       20.4697944251
  C         0.1228355824        9.9581706833       25.5614927331
  H         0.1960115163       13.7303149334       25.4587031232
  C        -0.1230463063       12.0016659313       26.6661277874
  H         4.0178234925       12.1262052796       23.0975622935
  H         3.2481808896       12.1397267000       24.5303282033
  C         4.6218061218       13.6901609879       24.2639638649
  C         2.5738293449        8.9588627055       19.7900350384
  C        -0.1807072245       10.5962898427       26.7840018248
  H         0.1470284815        8.8674265438       25.4505710215
  C        -0.4807370844       12.3985791833       27.9213987049
  H         5.2693846007       12.9840363991       24.7806073062
  H         4.3599279491       14.5760054161       24.8776973627
  C         5.5355455521       14.1270785594       23.1005588909
  C         2.5517041364        7.5782752301       19.4790831686
  C         3.0625681473        9.8077965018       18.6709762217
  C        -0.4657829875        9.9051912702       28.0563329509
  C        -0.7046237650       11.3026969799       28.7611183622
  S        -0.6806979351       13.8679024107       28.6613666115
  H         6.2007064385       14.9029469957       23.3864350246
  H         4.9219432204       14.5159232193       22.3902579465
  C         6.4309920158       13.1160954837       22.4606260162
  N         2.1543857602        6.6448643127       20.4183198669
  C         2.7114901762        7.0578463992       18.2030949871
  C         3.3026977693        9.3597194162       17.3871156198
  H         3.1190067586       10.8996962682       18.8564508187
  C         0.6602175934        9.1340051670       28.7150974029
  C        -1.8381129864        9.1779035032       27.8258993092
  C        -1.0389923648       11.7025353975       30.0473253066
  C        -1.0563369549       13.0600606522       30.1214157527
  H         7.0757249547       12.6097251870       23.1446086417
  H         5.9288836711       12.1954871279       22.1737355838
  C         7.2812141259       13.5990456246       21.3808985879
  S         1.9828814163        5.1989492919       19.6151160266
  N         2.5112305358        5.6808736947       18.1256684692
  C         3.0958251312        7.8540412035       17.0956771670
  H         3.6578439165        9.9773845168       16.5750579237
  H         0.9605339441        8.3394806877       28.0407281106
  H         0.2178578400        8.7146705742       29.6196289673
  C         1.9250738113        9.9843491842       28.9778515384
  H        -1.6939880730        8.2988444275       27.1240038041
  H        -2.0548591267        8.7471557019       28.8017823874
  C        -3.0776294398       10.0744398904       27.4619752207
  H        -1.2217216819       11.0102156043       30.8812224326
  C        -1.4528952485       13.8325876549       31.3490950824
  H         8.1480709235       13.0150314812       21.4180858439
  H         7.7230451109       14.5315236539       21.5670666527
  C         6.7163702876       13.4188753759       19.9500458609
  C         3.4556374270        7.1611279264       15.8252458111
  H         2.2978209431       10.4851688459       28.0646331814
  H         1.6106667731       10.7793528159       29.6355760724
  C         3.0381046824        9.1707197694       29.6684114709
  H        -2.8457386823       10.7739449955       26.6418372364
  H        -3.3770653470       10.7921186911       28.2208894445
  C        -4.2483576869        9.2410398898       27.0959185186
  C        -1.6106551713       15.2516789815       31.4032464915
  C        -1.8086764137       13.1779127504       32.6013759564
  H         6.6138113404       14.3415446136       19.3753128548
  H         7.4165222004       12.7555004957       19.4116617101
  C         5.3221741020       12.7976710087       19.8694839531
  H         3.5583068975        6.0415487178       15.8827131691
  C         3.6233784223        7.6156599242       14.5363027597
  H         3.5995411317        8.5274128869       28.9972480654
  H         2.6356908557        8.5045290526       30.3566184558
  C         4.0633720432       10.0650300437       30.3527972985
  H        -3.9379476306        8.5970980840       26.2640221585
  H        -4.5102577914        8.5547692772       27.8642428484
  C        -5.4412650878       10.1565067021       26.8180470482
  N        -1.2673543488       16.1331181743       30.3794939309
  C        -2.0887347000       15.9282219206       32.5142993025
  C        -2.1334940662       13.8561790837       33.7795975819
  H        -1.5684525616       12.1489079484       32.6767219344
  H         5.0995349048       12.8171698396       18.8312605076
  H         5.1323473287       11.8076576705       20.3080140586
  H         4.5575034632       13.5175110234       20.2755204732
  S         3.8310408588        9.2480192261       14.1027629721
  C         3.7450906503        6.6529153862       13.4382285878
  H         4.0460032498       11.0518420840       29.8153017374
  H         3.7939173669       10.2270185242       31.3989825688
  C         5.4917284637        9.3860450322       30.4341275781
  H        -5.2219906016       11.0099928273       26.2084880702
  H        -5.8635562673       10.6989883777       27.6610985958
  C        -6.6577324281        9.3681645734       26.3182365426
  S        -1.4605334038       17.6434655209       30.9523913078
  N        -2.1141803675       17.3391058948       32.3801605282
  C        -2.2935312705       15.3462126740       33.7644005588
  H        -2.2667576517       13.2977552899       34.6949583838
  C         4.1383464491        8.6011565594       12.4763607009
  N         4.1712716016        7.2500074296       12.3617693906
  O         3.6435256486        5.4370087728       13.6414279978
  H         6.0637341059       10.1108590019       31.0561792452
  H         5.9271847437        9.3543074972       29.4285839717
  C         5.4379617651        8.0229824555       31.2217569198
  H        -6.2849672867        8.6046265763       25.6417185369
  H        -7.2953655377        8.8893306450       27.1722869987
  C        -7.5578911595       10.3274553440       25.5921615325
  C        -2.6378059376       16.0928911331       34.8937909148
  S         4.6422289166        9.5079697197       11.0496749768
  C         4.3887488527        6.5970347673       11.0668984401
  H         5.9152072492        8.1093675842       32.2245510246
  H         4.4666104569        7.7771746875       31.5013041829
  C         6.2049174374        6.8651313327       30.5651663564
  H        -7.2025754216       10.5586989308       24.5805633183
  H        -7.6251882100       11.2775221543       26.1734561801
  C        -8.9783275063        9.7455722709       25.4116666672
  H        -2.4500447645       17.1298877212       34.7691783489
  C        -3.0446890267       15.7957818511       36.1469201523
  H         5.1249068089        7.0460475422       10.3567008598
  H         4.6630004799        5.5627363280       11.3008278058
  C         3.0502891249        6.5632512060       10.3552303344
  H         7.1248339505        7.2325479127       30.1082235792
  H         5.6112733980        6.3501733330       29.8002226009
  C         6.4852419799        5.7806207201       31.5897280324
  H        -9.4168540042       10.3500850452       24.6153849324
  H        -8.8025621121        8.6810078363       25.1162762114
  C        -9.8260031674        9.8969902170       26.6662026792
  S        -3.5388263738       14.2869718369       36.7717936990
  C        -3.1175873561       16.9170351382       37.1161644538
  H         2.5527735193        5.6127062312       10.3611329651
  H         2.3502357443        7.2582520195       10.8737378833
  H         3.1066951475        6.8518738592        9.3391557721
  H         5.6741797825        5.4175009867       32.2392438896
  H         7.2399737263        6.2811410874       32.2290528259
  H         7.0346287201        5.0016625854       31.1583392431
  H        -9.7348619441        9.0966949888       27.4933065745
  H       -10.9031372095        9.9316249603       26.3631875705
  H        -9.6876143112       10.8877424329       27.0648735222
  C        -3.9397917911       15.0903489046       38.2481867395
  N        -3.6483627002       16.4148555858       38.2383039572
  O        -2.7239237775       18.0075295303       36.9718536179
  S        -4.3846992696       14.3988809641       39.7598684137
  C        -3.6886897087       17.2341814504       39.5041401928
  H        -3.9804096012       18.2273002628       39.2260037828
  H        -4.3652397879       16.9770979168       40.2972737837
  C        -2.3277315108       17.3823036010       40.2178139895
  H        -1.4507254790       17.6478151317       39.5702464313
  H        -2.3116798749       18.2008462222       40.9718758051
  H        -2.0913665404       16.3530995314       40.6847010209
