352
 i =    36600, time =    36600.000, E =        25.0808292764
  H        11.4812644692        7.0310912246       32.3969916148
  C        11.1577304169        6.0123055285       32.5170771575
  H        11.9901369260        5.3550266511       32.3267601242
  C        10.0972186322        5.7768525065       31.4915637606
  C        10.7198220845        5.7619587716       33.9714345615
  C        10.5943179914        6.1355270560       30.0806477265
  H         9.8982491323        4.7250624848       31.5591778247
  H         9.2204491506        6.3092353228       31.6894519297
  H        11.5417751107        5.7961239201       34.7202836423
  H         9.8763630294        6.4833725732       34.2687166547
  H        10.3602659000        4.7532511453       33.9943003399
  C        10.4057323215        5.0477573779       29.0585774431
  H        11.6095121171        6.5146583950       30.1370961501
  H         9.9150061200        6.9603886362       29.8187285584
  C        10.6642341969        5.6241361050       27.6431745526
  H        11.1368490624        4.2964932992       29.2809062956
  H         9.4004580907        4.5879490311       29.0658503280
  C         9.7063841283        5.0566888730       26.6282614117
  H        11.6436486269        5.3336199954       27.3343680522
  H        10.5982773310        6.6840306881       27.5378104510
  C         8.4007397391        5.9083408339       26.4270204209
  H        10.1752656937        4.9670453223       25.7046149177
  H         9.5917162548        4.0482413298       26.9744392047
  C         7.2444350291        5.1932950413       25.7482705261
  H         8.0706428610        6.2301471054       27.3954869228
  H         8.5275992661        6.8008104482       25.8230691943
  C         6.8969345893        3.8640007435       26.4138816673
  C         7.5956563877        4.4287087350       24.4589458849
  C         5.9398886494        6.0135769435       25.6422413184
  C         7.0358288500        2.7337298590       25.5921751641
  C         6.5035121743        3.4869789645       27.6308342713
  C         7.5381364548        3.0841072091       24.3295696654
  C         8.1083667353        5.0675136552       23.2876143167
  H         6.1310783378        6.7723217551       24.8559321255
  H         5.6874121644        6.5540007243       26.5969691688
  C         4.6910979851        5.3292565855       25.0776227592
  S         6.5586225115        1.3163290253       26.3356453600
  C         6.2574460453        2.1434057713       27.7964576108
  H         6.4768720716        4.2762064443       28.3940384864
  C         7.8734292094        2.4759264915       23.1475235628
  H         8.2285975111        6.1395604391       23.4047756078
  C         8.4581559503        4.5027457918       22.1077507517
  H         4.8862678295        5.0989948248       24.0139204014
  H         4.5765362997        4.4255546760       25.6876251888
  C         3.4846111725        6.2289421216       25.1553187389
  C         5.8340199496        1.4757793211       29.0651007617
  C         8.2886521571        3.1821805061       21.9895515871
  H         7.7787046035        1.4010307012       23.0761538617
  C         8.8232131116        4.8853937196       20.8506181532
  H         2.6601379086        5.7215711326       24.6245049750
  H         3.6454323443        7.1022648114       24.6095593192
  C         2.9248217625        6.5121577599       26.5815001238
  C         5.8220372290        0.0790256477       29.3548262746
  C         5.4597482644        2.2195273640       30.1880570711
  C         8.5561429700        2.4628870837       20.6874681275
  C         8.9053395548        3.8104679881       20.0053668082
  S         9.0987131967        6.3609470863       19.9735698882
  H         2.1092586119        7.1913892741       26.4613212974
  H         3.6684345829        7.0330360271       27.2036426716
  C         2.4176612601        5.2940322318       27.3144470719
  N         6.0926058034       -0.8496073761       28.3763356526
  C         5.6537854681       -0.5337181219       30.5776000061
  C         5.0834664313        1.6549494519       31.3922158036
  H         5.3843464158        3.3080327427       30.1114067653
  C         7.3542395736        1.7189244246       20.1702648588
  C         9.7794914153        1.6308663012       20.8489509344
  C         9.3447233741        4.1507275236       18.7034825491
  C         9.5194400632        5.4510463904       18.4893630840
  H         1.7797989986        4.6406198444       26.6469954471
  H         3.1626925980        4.6812683708       27.6390423425
  C         1.4170123876        5.5404601895       28.4685532861
  S         6.1731133940       -2.3622325375       28.9596544515
  N         5.7898139607       -1.9251694957       30.4664423244
  C         5.2710693763        0.2669396559       31.6446849774
  H         4.5953555387        2.3080281703       32.1834486632
  H         6.9543967480        1.0288068699       20.9388730480
  H         7.6009286026        1.0909409789       19.3455283410
  C         6.2287565697        2.5813837343       19.6595886968
  H         9.8320026203        1.1194218409       19.8602183705
  H         9.7149362265        0.9059556471       21.6455024462
  C        11.0579548713        2.4441222204       20.9755051043
  H         9.5307712860        3.4019973037       17.9290746283
  C         9.8392592439        6.0895809500       17.2043779566
  H         0.9266214479        4.6267082793       28.8697092059
  H         0.6119236585        6.0591246789       27.9289834342
  C         2.0585170478        6.2461719152       29.6770883459
  C         4.9894296358       -0.4363571304       32.8518199053
  H         6.6875857800        3.1688358921       18.8489243139
  H         5.9315228339        3.1607075684       20.4950843941
  C         5.0867013088        1.7191943762       19.2693709736
  H        10.9316989164        3.0513741683       21.9008280306
  H        11.3083773715        3.0361433647       20.1490869804
  C        12.3195936120        1.5763397809       21.1018413094
  C        10.0524410567        7.4594217679       16.9376542187
  C        10.0539763890        5.2849077632       16.0280973263
  H         2.8133459051        6.9592162166       29.3769531336
  H         1.4343084545        6.7114123054       30.3535549900
  C         2.8750023160        5.2559447349       30.6141143671
  H         5.1442565022       -1.5106336206       32.7434711125
  C         4.7160947004       -0.1038203171       34.0992206171
  H         4.2943201637        2.0241276324       20.0496820187
  H         5.1710705801        0.6590776251       19.4075963863
  C         4.4040466624        2.0425773935       17.9081502475
  H        12.3738765303        0.9912787889       22.0132250171
  H        12.2948688952        0.9123369615       20.2527578944
  C        13.5485521189        2.4491916274       20.9473127601
  N         9.8315840218        8.4159467088       17.8652485841
  C        10.3512223556        8.0145002747       15.7539185440
  C        10.3630759573        5.7579877697       14.7657692526
  H         9.9194493391        4.2610512943       16.0922165359
  H         2.2885118164        4.6932794536       31.3594290852
  H         3.4396039108        4.5359275974       30.0785107015
  H         3.5846442167        5.8610714001       31.1883868374
  S         4.3011336928        1.4871911351       34.7172546217
  C         4.6347943470       -1.2180552414       35.0340721750
  H         4.2192720257        3.0500433976       17.8989554363
  H         4.9365070506        1.8389882116       16.9987079657
  C         3.0087134976        1.4508525864       17.8447855503
  H        13.3304932914        3.3841849899       20.4134429650
  H        14.3257938204        1.8168067217       20.4317948124
  C        13.9568976084        2.7903597893       22.4095147807
  S        10.0579250174        9.9350098360       17.2022967608
  N        10.4621628110        9.3932616425       15.7251303048
  C        10.6048770236        7.2564626138       14.5954944607
  H        10.5260035019        5.1902370989       13.8753430191
  C         4.0254820838        0.6025439468       36.1958068986
  N         4.2480042114       -0.7230221168       36.2415983066
  O         4.7753500336       -2.4303167594       34.7793800336
  H         2.3957612029        2.0335580714       17.1511959174
  H         2.5387033170        1.3932456387       18.8317583453
  C         3.1190464414       -0.0397860631       17.6135966897
  H        14.5152100883        3.6868348729       22.5867176093
  H        13.0855459965        2.8595433582       23.0174344587
  C        14.8286360201        1.6590519981       22.9772690625
  C        11.0054918712        7.9456683266       13.4652792306
  S         3.5427333785        1.2720473447       37.7465257566
  C         4.3341571853       -1.4976887766       37.4829027087
  H         4.0184670511       -0.2436773422       17.0195712913
  H         3.1765128534       -0.5359734837       18.5903882834
  C         1.8523459316       -0.6542906236       16.9592165155
  H        14.8534336901        0.7853033557       22.3143740041
  H        14.3033157231        1.3879479443       23.9155116374
  C        16.2835343698        2.0410660575       23.2673572991
  H        10.5654393957        8.9020341491       13.4361979679
  C        11.5493637793        7.6036331015       12.2598122288
  H         3.4417300546       -1.2516448181       38.1415859048
  H         4.1543376716       -2.5790100282       37.4275364980
  C         5.6319254247       -1.2721361153       38.3626862487
  H         1.7052203911       -0.1398489448       15.9862460895
  H         0.9211251728       -0.4773818290       17.4230279196
  C         1.8483024703       -2.0982872923       16.6767727499
  H        16.2672346481        3.1110639582       23.5780183829
  H        16.5863203581        1.4503345771       24.1244399410
  C        17.2127845258        1.8752535079       22.0328657738
  S        12.2649099187        6.0534221771       11.8331831097
  C        11.6212257988        8.7152081326       11.2668522035
  H         5.9345760131       -2.2084094835       38.8071049990
  H         6.4237270445       -0.8663396004       37.6936306955
  H         5.4103992102       -0.4296009489       39.0522403349
  H         2.8229954544       -2.5132394552       16.4616910518
  H         1.2804980600       -2.2452624257       15.7539372101
  H         1.2945808556       -2.7435105348       17.3617221393
  H        18.2101225345        2.2111281788       22.2687218935
  H        16.7068058988        2.3702425032       21.2188477996
  H        17.3029590466        0.7913825916       21.7450055755
  C        12.5172987167        6.8617768678       10.2636063972
  N        12.2466785961        8.1701400582       10.1920250256
  O        11.3318188851        9.9095223217       11.3471842911
  S        13.1423679884        5.9957337843        8.7680826740
  C        12.4585991929        8.9499358446        8.9782633983
  H        12.5196673296        9.9515168687        9.2290074513
  H        13.3872176546        8.7407182362        8.4333018600
  C        11.3259675097        8.8209646707        7.9511456147
  H        10.8421710374        9.7295393421        7.6254955958
  H        11.7423527471        8.3635333255        7.0493022875
  H        10.5195471787        8.1475510407        8.3083778155
  H        -3.0247565309       14.7339623431       16.4094797228
  C        -2.9702011092       13.6744707414       16.6203415188
  H        -4.0136016407       13.3857022632       16.6821978167
  C        -1.9834237218       13.4354735807       17.6701011492
  C        -2.4294657097       13.0738450626       15.3569677855
  C        -2.5293805621       13.4102165036       19.0307838512
  H        -1.5706790569       12.4223528040       17.5246636458
  H        -1.1543147248       14.2053274875       17.6727441803
  H        -1.4135486232       13.4669282143       15.1322614572
  H        -2.3585589639       11.9692492784       15.3578320848
  H        -3.2081998902       13.2359270456       14.5559659814
  C        -1.5031089254       13.6441661165       20.1373498681
  H        -2.9374382989       12.4297565460       19.2154012111
  H        -3.2762163894       14.1070136033       19.1965076306
  C        -2.0604564159       13.4485662413       21.5365790379
  H        -0.6781860074       12.9332261098       20.0313994196
  H        -1.0658390247       14.6491371072       20.0703181240
  C        -0.9558805625       12.8225134501       22.3764735048
  H        -2.8999040749       12.8140775909       21.6493813328
  H        -2.4317692976       14.3433224929       22.0565569278
  C         0.2606320015       13.8299167206       22.7852218407
  H        -1.2789850388       12.1487261517       23.1367011675
  H        -0.5244954038       12.0588972388       21.8175423806
  C         1.3811885806       13.0949975791       23.4859155185
  H         0.7459642535       14.2706902478       21.8665349529
  H        -0.0108307553       14.6570222856       23.4420086926
  C         1.7788437590       11.7272161917       22.8041435304
  C         0.8948373435       12.3732992287       24.6995646148
  C         2.5602342804       14.1079165904       23.7684722611
  C         1.5713954109       10.6802725100       23.6336536904
  C         2.2748488676       11.3814174353       21.5378375621
  C         0.9743732753       11.0622602393       24.8227539675
  C         0.5062382676       12.9997669372       25.7989685536
  H         2.7232072258       14.6499776627       22.8302232448
  H         2.2343415132       14.8248889440       24.5297569177
  C         3.8275920352       13.3686496917       24.4098177432
  S         1.8402227028        9.1904106784       22.8429623815
  C         2.3172325602       10.0274709680       21.3716492097
  H         2.4580394098       12.1587499937       20.8327960356
  C         0.5499003348       10.4095093838       25.9393730080
  H         0.3964208713       13.9879941494       25.6192281782
  C         0.0402674330       12.3840941142       26.9301684920
  H         3.9734469430       12.3833828846       23.8692973569
  H         3.5931773417       12.9290019720       25.3655467354
  C         5.1478863486       14.3220330484       24.4760735493
  C         2.7314187643        9.3259843681       20.0829401604
  C         0.0411058613       11.0722992671       27.0228671827
  H         0.7652326544        9.3546103267       25.9771858814
  C        -0.4529701040       12.7089844205       28.1594063124
  H         5.7563952152       13.7506505136       25.1982092745
  H         4.8619556422       15.2272086389       25.0337096828
  C         5.9008517734       14.5373099407       23.1195331854
  C         2.5945501274        7.9693943025       19.8050936485
  C         3.2706120775       10.1120492154       18.9864744703
  C        -0.3915332039       10.3492172191       28.1840952169
  C        -0.7349572541       11.6168146362       28.9434767537
  S        -0.7739272307       14.1516048244       29.0131258441
  H         6.8077999139       15.1592488724       23.3530718134
  H         5.3204910217       15.1110696314       22.4803508148
  C         6.4326289151       13.1778479155       22.4319489101
  N         2.0916467956        7.0693160108       20.7060368253
  C         2.8134777617        7.4860048675       18.5448636778
  C         3.5518708430        9.6352648487       17.6953068425
  H         3.4120454772       11.1679275968       19.0879473630
  C         0.7290971682        9.5091175006       28.9272168536
  C        -1.6340860942        9.4058028861       27.9239520441
  C        -1.3175207956       11.9026171723       30.1567016145
  C        -1.3240348744       13.2422728428       30.4489378720
  H         7.0181283007       12.6587885997       23.1556391681
  H         5.5168447183       12.5563779040       22.2036324102
  C         7.4744585418       13.5126890639       21.2637625946
  S         2.0409127318        5.6270029522       19.9669963008
  N         2.5028564320        6.1023800259       18.4867281665
  C         3.2163964504        8.1984786166       17.4070032788
  H         3.9955562447       10.2317269603       16.9621793277
  H         1.3298658060        8.8801149974       28.2923135781
  H         0.1645878209        8.8223436149       29.5131273712
  C         1.7616716061       10.4006242465       29.6987978701
  H        -1.4044329856        8.6758112515       27.1384290199
  H        -1.9617433098        8.7961316579       28.7651829060
  C        -2.8697453202       10.0893674754       27.3403566332
  H        -1.6571809644       11.0961363239       30.8288946965
  C        -1.6089599967       14.0177725560       31.7270453978
  H         8.1848246979       12.7887095408       21.1284892875
  H         8.0689064713       14.3850407286       21.4104904381
  C         6.8305794182       13.6079893781       19.8469273229
  C         3.4348511942        7.4726298854       16.1439970621
  H         2.0606680317       11.2405756952       29.1009594185
  H         1.3446386244       10.8972244844       30.5521161199
  C         2.9725987165        9.5393874414       30.1243729379
  H        -2.4808687778       10.4586310699       26.4287115528
  H        -3.0364192750       11.0590884706       27.8348465334
  C        -4.2765009002        9.4036265384       27.3034961064
  C        -1.7956928338       15.4048212936       31.8802823571
  C        -1.7166890641       13.2275917045       32.9616030642
  H         7.2555445117       14.4572587865       19.2464526704
  H         7.1539820077       12.7433118894       19.3166020303
  C         5.3711139915       13.4780948580       19.8191852776
  H         3.3239996938        6.3714834871       16.2299349531
  C         3.8373517212        7.9302614496       14.9429772052
  H         3.3906915723        9.1079357692       29.2186071634
  H         2.6293559029        8.7675901778       30.7847453481
  C         4.0003238514       10.4539113319       30.7699853459
  H        -4.3357236747        8.5562606899       26.6727025511
  H        -4.5715301079        9.1219816435       28.3029267514
  C        -5.2721089448       10.3964008116       26.7172763253
  N        -1.6991407289       16.3583981755       30.8110619603
  C        -2.1229045859       16.0105959634       33.1014290819
  C        -1.9936520424       13.8809767820       34.2033221148
  H        -1.6216046826       12.1220854452       33.0371807537
  H         4.9069725438       13.6443440722       18.8648521893
  H         5.0778369438       12.4808803661       20.1966694333
  H         4.9287749804       14.2139376703       20.4503688399
  S         4.0036430194        9.5545166530       14.4190902108
  C         4.0136485444        6.9158918075       13.7987987595
  H         4.0457073018       11.3081273300       30.0775340450
  H         3.6634502892       10.7837114709       31.8223544038
  C         5.3083770831        9.7912212170       30.7456617970
  H        -5.4716075058       10.0150280213       25.7068574148
  H        -4.8125173192       11.3500064140       26.5522899166
  C        -6.5320316028       10.5576014284       27.5563140910
  S        -1.9218478707       17.8216403905       31.4609216984
  N        -2.3131883984       17.3867712501       32.9634977440
  C        -2.2932583541       15.2693475269       34.2497557428
  H        -1.9941416260       13.2887286852       35.1398200180
  C         4.2452899159        8.9557758281       12.8103622341
  N         4.1960283977        7.5898114805       12.6277399429
  O         3.8861041381        5.7030186488       13.9136868090
  H         6.0888363388       10.5321759883       30.9742870866
  H         5.6529497303        9.4838115157       29.7564575775
  C         5.4295909451        8.5583652440       31.6922634167
  H        -6.8398622846        9.5696765205       27.8217016619
  H        -6.2741659691       11.0855653948       28.4969101551
  C        -7.6693856541       11.2700084526       26.7961495145
  C        -2.6947907641       16.0457152919       35.3706329087
  S         4.2728085930        9.9617145065       11.4028291140
  C         4.0740763953        6.7789777159       11.4126743928
  H         5.9548259512        8.9669971211       32.5709604214
  H         4.4803501449        8.2428409862       32.0860956906
  C         6.3065065420        7.3617221178       31.0730567112
  H        -7.2161379915       12.1618475839       26.3193168223
  H        -8.3614611781       11.8802222422       27.3687402983
  C        -8.3403140372       10.2750479462       25.8145556050
  H        -2.5090962219       17.0508240907       35.4121613207
  C        -3.2738057282       15.6429625984       36.5974911793
  H         4.5099330705        7.4229994139       10.5985076084
  H         4.7066547024        5.8798250772       11.3778264100
  C         2.6313409736        6.3488807277       11.0963130924
  H         7.3366813977        7.6652831253       30.9208949763
  H         5.7727788755        7.0732979134       30.1197708583
  C         6.2245702621        6.0214529284       31.8402557935
  H        -8.5229980289       10.8431556959       24.8891288070
  H        -7.7579380410        9.4433088982       25.6178827092
  C        -9.7055485778        9.8231190956       26.2794474254
  S        -3.8530354780       14.1238738056       36.8752229840
  C        -3.4686420244       16.6293902193       37.7434362695
  H         2.6421209908        5.6619583770       10.3022746676
  H         2.1005972780        5.8026656583       11.8534917641
  H         2.1092358408        7.1983795681       10.7166336616
  H         6.7225453101        5.2360344596       31.2583315626
  H         5.2075244584        5.9086928014       32.1725923170
  H         6.8299418995        6.0369416522       32.7075656663
  H       -10.3055944414       10.0457968845       25.3973134986
  H        -9.9626492666       10.3506992334       27.1516070234
  H        -9.8003477324        8.7338556727       26.4359789412
  C        -4.3534167510       14.6805369242       38.4606778536
  N        -4.0447120971       16.0045256901       38.7407425334
  O        -3.1677683528       17.7777752571       37.6685809491
  S        -5.1941317298       13.6897659390       39.7361616783
  C        -4.1032963699       16.6241607527       40.0693057446
  H        -4.4368032302       17.6770498458       39.9519863663
  H        -4.9409380885       16.2290735532       40.5956060146
  C        -2.8324991721       16.3315588392       40.9645245577
  H        -1.9240281670       16.4106876232       40.3872138054
  H        -2.7089694670       17.0757262636       41.7492057130
  H        -3.1053839370       15.2851469642       41.3680527666
