352
 i =    47500, time =    47500.000, E =        24.5520242288
  H        10.5491159214        7.6252993413       32.9410129352
  C        10.8588385181        6.7842880120       32.3151689429
  H        11.8613848540        6.9046272208       31.9004004079
  C        10.0148072838        6.4754873499       31.0892105924
  C        10.9553542633        5.5621343378       33.2625754571
  C        10.7474184615        6.0548137921       29.7898145976
  H         9.1922796553        5.8375799749       31.3540399106
  H         9.4354319406        7.4036442731       30.8748261659
  H         9.9796219577        5.1656994353       33.4253377302
  H        11.6255558070        4.7670542723       32.9701602140
  H        11.3061821947        5.8801122044       34.2925536419
  C         9.8151973648        5.4974528740       28.8459725834
  H        11.4679423247        5.2533825789       30.1269487950
  H        11.3628460022        6.8787615294       29.3806777659
  C        10.3325528643        5.7525920305       27.4825152585
  H         9.7713622051        4.4608146243       29.0292906115
  H         8.8274503065        5.9581930322       28.9850668530
  C         9.4173391843        5.0710120662       26.4965720329
  H        11.3213053167        5.3532372941       27.5863834756
  H        10.5562439906        6.7646600688       27.2544058598
  C         8.1979988215        5.8766031458       26.0769456390
  H        10.0030124477        4.8677937180       25.6092429352
  H         9.1457158385        4.0634896647       26.8909791792
  C         7.1566169926        5.0192718753       25.2716271831
  H         7.7032697889        6.3413315168       26.9820128335
  H         8.4288525932        6.7107598380       25.4571056198
  C         6.8616441630        3.6636022818       25.9581460246
  C         7.6467502737        4.2277968342       24.0502051550
  C         5.9054871357        5.8559678433       25.0823834484
  C         7.0578682315        2.5632541204       25.1084826875
  C         6.4386239831        3.2114131463       27.2037624431
  C         7.5082906475        2.9059036135       23.8795287853
  C         8.1535309211        4.8911987620       22.9194844825
  H         6.1757966370        6.6215431022       24.3323849652
  H         5.7891843779        6.2797572322       26.0530393419
  C         4.5887427454        5.1646524823       24.5997395310
  S         6.9251003320        1.0637929537       25.9153792289
  C         6.4268136015        1.8639623366       27.3764364750
  H         6.1295620519        3.9133335747       27.9309020110
  C         7.9585620226        2.2950421957       22.7863948286
  H         8.4337001111        5.8892658217       23.0371675910
  C         8.4789558696        4.3111105602       21.7702053159
  H         4.7726334022        4.6471995708       23.5748183886
  H         4.4626678760        4.2883391640       25.3010413311
  C         3.4817116109        6.1756855517       24.5759569582
  C         6.0027722567        1.2017957693       28.6865594224
  C         8.4336848830        2.9770991231       21.6329684839
  H         7.8877257174        1.1939879711       22.7147788234
  C         8.7791085250        4.6520734178       20.4700283393
  H         2.6530410523        5.7003882340       23.9894155343
  H         3.6626077642        7.1210017399       24.0185686536
  C         2.9921704101        6.5329552024       26.0302929973
  C         6.1266594843       -0.1992588149       28.9930588439
  C         5.2788062823        2.1035044975       29.6934333505
  C         8.7439715030        2.2460873011       20.2450555011
  C         8.9061214462        3.6149378644       19.6274966170
  S         8.9663722476        6.1375366215       19.6603798491
  H         2.1459648681        7.1669041251       25.8744498781
  H         3.7770473413        7.0862435905       26.5156925197
  C         2.5242686075        5.3087891348       26.8250926447
  N         6.5047217838       -1.2528327781       28.1029950218
  C         5.7403619339       -0.6836901277       30.2476520146
  C         4.9327126796        1.5838923817       30.9168901356
  H         4.8083696788        3.0619698712       29.5460080301
  C         7.5068624542        1.5280361627       19.8620031896
  C        10.0536402692        1.4610100453       20.4319804330
  C         9.2504012843        3.9613078064       18.2791967090
  C         9.2558355366        5.3561950412       18.1862899382
  H         2.1622558744        4.4796456015       26.1406618769
  H         3.3781896463        4.8866124085       27.3332220029
  C         1.4869275330        5.6579837123       27.8979412814
  S         6.5537501401       -2.6243593788       28.9711199666
  N         5.9582666620       -2.0444463346       30.3465302450
  C         5.2072486921        0.1069943938       31.2882365782
  H         4.3845814160        2.2392698339       31.5526592688
  H         7.1079264515        1.0435857843       20.7512216515
  H         7.8115953443        0.7042840627       19.2822667105
  C         6.3875013556        2.3727653443       19.2232086437
  H        10.1898373059        0.6311558780       19.7331132309
  H         9.9198808975        0.8815064256       21.3631504876
  C        11.2782713511        2.4393050836       20.6341348012
  H         9.4034535910        3.1640918728       17.5421626708
  C         9.6064741199        6.0846534364       16.9162215677
  H         0.7336965620        4.9396462406       27.8342245229
  H         0.8157255067        6.4612525423       27.7441931910
  C         2.0606064905        5.8141355716       29.2954548648
  C         5.0727184649       -0.4453205630       32.5955967287
  H         6.7228330222        3.0642364552       18.4441997843
  H         5.9311105824        2.8931588991       20.1170779425
  C         5.3757084706        1.4369357311       18.5280998709
  H        11.0900378618        3.0377502028       21.5075465010
  H        11.3205851955        3.0863009470       19.7207559597
  C        12.5389553860        1.7392739372       20.8879942532
  C         9.7140394007        7.5141398459       16.8350046013
  C         9.9271099921        5.3283620627       15.6027114222
  H         2.7815915007        5.0147927598       29.5541260965
  H         2.6907556262        6.6481100253       29.4428261464
  C         0.8855683533        5.8567754854       30.3833550809
  H         5.3412926298       -1.4906440612       32.7457482045
  C         4.6037209800        0.0394305773       33.7942309416
  H         4.9025063570        0.9033032761       19.3380111384
  H         5.9483791861        0.7260105364       17.9926316604
  C         4.3862210636        2.1621801728       17.5957755621
  H        12.4848433648        1.0313351894       21.7174582389
  H        12.7954637464        1.1173232662       19.9995554390
  C        13.7386605549        2.7617787962       21.0996933987
  N         9.4749779998        8.3777968813       17.9305112445
  C        10.0520299760        8.1374926005       15.6607280357
  C        10.2731393178        6.0475821550       14.4542430457
  H         9.9411195300        4.2998401523       15.5333626069
  H         0.0424056378        5.2322257816       30.0433434600
  H         1.3502049600        5.2540940326       31.1288641255
  H         0.6189251181        6.7790356774       30.8204883065
  S         4.2643297356        1.6696947750       34.1777446179
  C         4.5546517925       -0.9461302078       34.8966155499
  H         4.1665818310        3.1913057900       17.8318765118
  H         4.8975081001        2.0905249438       16.6111828272
  C         2.9586704800        1.5343048787       17.4763674110
  H        13.4592571532        3.7899422734       20.6831536604
  H        14.4038387048        2.3603037783       20.3406244590
  C        14.2578617105        2.8479789414       22.5245042321
  S         9.5328493266        9.8791899258       17.3171049767
  N        10.0155784570        9.5248239519       15.8246781485
  C        10.4122338959        7.5036611823       14.4285495263
  H        10.5535904427        5.5627655935       13.5965575396
  C         4.1649614548        1.0385973602       35.8666614030
  N         4.2546083988       -0.3086102634       36.0594904880
  O         4.6021277503       -2.1431129355       34.7209007980
  H         2.2581306413        2.1056523962       17.0219280911
  H         2.6353412827        1.4280415531       18.4684184219
  C         2.8893773501        0.1244326407       16.8185303366
  H        14.8078814582        3.8131001393       22.5987028027
  H        13.4183469837        2.8102113881       23.1828381118
  C        15.2936337997        1.7503717267       22.8520106222
  C        10.7393458259        8.2987714939       13.2670871999
  S         3.7155059691        2.0167481385       37.2988092920
  C         4.2448090749       -1.0293794825       37.3154535097
  H         3.0568765535        0.2372922448       15.7316676183
  H         3.7545704231       -0.4996755356       17.1719376277
  C         1.5907638849       -0.6191284957       17.0228080996
  H        15.4487480495        1.2191783813       21.9166387653
  H        14.8158430875        0.9888303704       23.4766413326
  C        16.5545326749        2.2600644596       23.4564330019
  H        10.5502440359        9.2687578215       13.3899808058
  C        11.3865638597        7.9633790099       12.1016849457
  H         3.3929139529       -0.7323033187       37.9517080466
  H         3.8073290402       -2.0403288816       37.1669334704
  C         5.6538112488       -1.2212263798       37.8568685780
  H         1.5200384188       -1.1943991744       16.1216463765
  H         0.7847901609        0.0985542571       17.0662130574
  C         1.4546120191       -1.4467482068       18.2856783622
  H        16.3937916213        3.3022933670       23.8025545137
  H        16.8265944612        1.6370758158       24.2795123240
  C        17.7030662442        2.3018403306       22.4145533662
  S        12.0138433584        6.4092552417       11.8306827017
  C        11.3812094631        8.9120321604       10.9711653739
  H         5.9299988797       -0.5982879483       38.6770465972
  H         5.8227228364       -2.3162447912       38.1489334188
  H         6.3268027797       -1.0318058137       37.0339122676
  H         0.9265353201       -0.7595309369       18.8622047235
  H         2.4677080442       -1.6897996544       18.7112084712
  H         0.8455517690       -2.3970580339       18.1011481467
  H        17.7749436805        1.2845431621       22.0339436313
  H        18.6390882813        2.6392384268       22.8671183146
  H        17.4437140898        2.9750041315       21.5900975274
  C        12.5288862306        7.1365093555       10.2604909503
  N        12.1764717136        8.4085177481       10.0103903433
  O        10.7731595655        9.9785103683       11.0438430903
  S        13.6127174410        6.3816376683        9.1115980884
  C        12.3411686386        9.1199621967        8.7148809955
  H        12.3336795109       10.2441398893        8.7916511430
  H        13.3166115813        8.9251431686        8.2669626162
  C        11.2258104862        8.7683090998        7.6988040748
  H        11.0824351681        9.3589249805        6.7680453977
  H        11.5391362238        7.7842489424        7.3092365209
  H        10.2745542844        8.7650628989        8.1498318780
  H        -2.0195584952       12.5328516105       17.6764957148
  C        -2.1283927936       13.5420122613       17.2252123892
  H        -1.1960883140       13.8521244279       16.8330113607
  C        -2.4523084988       14.5327340882       18.3257578283
  C        -3.1935839223       13.6343919335       16.1899131221
  C        -2.8548696867       13.7908192118       19.5584249944
  H        -1.5355827433       15.1301122961       18.4714556078
  H        -3.3069691406       15.1773247387       17.9739589772
  H        -3.2194871679       14.6059437455       15.7607954952
  H        -3.0022479221       12.8891673048       15.3751380235
  H        -4.1514303119       13.4138415257       16.6191016767
  C        -1.7268021377       13.3458476554       20.4902185614
  H        -3.4147921428       12.9019749395       19.3251376058
  H        -3.5777998967       14.5085430689       19.9585099494
  C        -2.1923804479       13.4432564117       21.8534589403
  H        -1.3795714438       12.3051527288       20.3266804518
  H        -0.7893893893       13.9534703950       20.3630023004
  C        -1.2145556538       12.8532695911       22.8060285172
  H        -3.1329074414       12.9089329021       21.9533784108
  H        -2.3536928165       14.5678507056       22.1054302292
  C         0.0678584702       13.6957674808       22.9311963250
  H        -1.7488361875       12.7816016519       23.7649921758
  H        -1.0576317538       11.7664937571       22.6512114070
  C         1.2697157809       12.8573470925       23.4272415928
  H         0.3644952176       14.2827151197       22.0783276542
  H        -0.1042766195       14.5840582518       23.5335442310
  C         1.4585677970       11.5275469905       22.7241719588
  C         0.8259910458       12.1775843685       24.6780252271
  C         2.6246905202       13.5777717276       23.5757002260
  C         1.1522333900       10.4626708636       23.5001934510
  C         1.9553746575       11.1711185609       21.4544416671
  C         0.7850722011       10.8048921495       24.7648610874
  C         0.4008501343       12.9177014561       25.7898526187
  H         2.9266747579       13.9353683279       22.5739216012
  H         2.4479751487       14.4603751738       24.1966956631
  C         3.8275950552       12.8842050581       24.2610514445
  S         1.2091792739        8.9650063964       22.6318358450
  C         1.9176560413        9.7869700881       21.2870690979
  H         2.4707769791       11.9238397746       20.9128847143
  C         0.3883328344       10.2031767302       25.9664270118
  H         0.4089320094       13.9859690444       25.7964078006
  C         0.0619673837       12.2931290584       26.9627433569
  H         4.2200694497       12.0452494263       23.7445213777
  H         3.5045724076       12.5921322808       25.2657901115
  C         4.9722490842       13.8273639534       24.4085908974
  C         2.3188393836        8.9439541459       20.0683889624
  C         0.0546874920       10.9326373124       27.0986331846
  H         0.4358717492        9.0922915007       26.0547700030
  C        -0.4351066407       12.6838640276       28.2090683698
  H         5.6049792295       13.3579668017       25.1200769746
  H         4.6445850648       14.7302593977       24.9489941813
  C         5.7508225272       14.1580836293       23.1407443074
  C         2.1405813453        7.5729498684       19.7746895493
  C         2.7695045361        9.7491452183       18.8742815603
  C        -0.4358290295       10.2833030837       28.3570753444
  C        -0.7273557744       11.6189643621       29.0134035508
  S        -0.8158274829       14.3048268119       28.9451965248
  H         6.3995508329       14.9474085767       23.3617601260
  H         5.0961901475       14.5238071893       22.2409831881
  C         6.5244567909       13.0390080679       22.5274841021
  N         1.6232539318        6.6401743960       20.7016807386
  C         2.5092905269        7.0406520418       18.5702678589
  C         3.0587534118        9.1636257205       17.7096215911
  H         2.9844284823       10.7837356952       18.9249958546
  C         0.6038666561        9.5884333640       29.2544100559
  C        -1.7593412239        9.4827765164       28.1577692819
  C        -1.1121643056       12.0861092301       30.2827335548
  C        -1.1245433239       13.4525473777       30.3971853874
  H         7.2327002230       12.7297155158       23.2884501067
  H         5.8976610068       12.0831911939       22.3995820275
  C         7.2783191735       13.4122814161       21.2846444040
  S         1.5670832159        5.1942964960       19.9678385353
  N         2.2575713608        5.6318229008       18.5354881793
  C         2.8568067373        7.7524716633       17.4200537412
  H         3.3136413746        9.8918852108       16.9196045517
  H         1.0921176852        8.7883843924       28.7251256453
  H         0.0335878471        9.1095030608       30.0521824223
  C         1.7653188596       10.3983194845       29.9114772621
  H        -1.4911956225        8.6927533533       27.4942310084
  H        -2.1530615511        9.0238819237       29.0514227772
  C        -2.9432362101       10.3365031562       27.6281079669
  H        -1.3630762603       11.4202077222       31.0934377153
  C        -1.5682636784       14.2001777374       31.6158413712
  H         8.3741512919       13.0229774691       21.2531536505
  H         7.4224955344       14.4952395776       21.2922706396
  C         6.4704116819       12.9910265792       20.0092056246
  C         3.0575604541        7.1161956412       16.2064236989
  H         2.3563101477       10.8440308731       29.1211135835
  H         1.3521526691       11.1421843295       30.5956228489
  C         2.4835685992        9.3884341271       30.7740836271
  H        -2.6946174347       11.0483073045       26.7893282602
  H        -3.2498054348       10.9809715912       28.4448714009
  C        -4.0520693951        9.4652110976       27.1171180340
  C        -1.6439360028       15.5490091468       31.8178937926
  C        -1.6753272947       13.4569304564       32.8658850229
  H         7.1641114900       13.2177286340       19.1437206718
  H         6.3164514762       11.9269793807       20.0803718598
  C         5.0389553135       13.5442635310       19.8280938123
  H         2.7536196490        6.0396650951       16.2256061380
  C         3.5012218650        7.6033715689       15.0008268160
  H         2.6309636697        8.5628270518       30.2101717760
  H         1.8445482989        9.0129582122       31.5279075371
  C         3.7184406349        9.9236170328       31.4924619036
  H        -3.6105927301        9.0429595118       26.2717590036
  H        -4.1731401644        8.7306899230       27.9007080488
  C        -5.3345731124       10.3335361898       26.8438964899
  N        -1.5277673639       16.4795587369       30.7823799768
  C        -1.9796675651       16.1825660822       32.9982544968
  C        -2.0528376658       14.0769354124       34.0411584378
  H        -1.5148955412       12.3920177580       32.9665798013
  H         4.2252823834       13.1532048497       20.4499732972
  H         5.1043403731       14.6315290448       20.0009989028
  H         4.7767645560       13.5626677421       18.7484917114
  S         3.8394799041        9.2157584480       14.5295223744
  C         3.5514897774        6.5805973484       13.8937453420
  H         4.3608324196       10.5300087096       30.8418359810
  H         3.5395192460       10.3881235854       32.4599412765
  C         4.5727376205        8.7104473443       31.9533553944
  H        -5.0408619437       11.3126411094       26.5808850837
  H        -5.8536845355       10.5299222251       27.7800292252
  C        -6.2114777134        9.6273098177       25.7446296624
  S        -1.6766248666       17.9140270655       31.3653869213
  N        -2.0667655990       17.5441081254       32.8806782272
  C        -2.2761155465       15.5076095700       34.1757901613
  H        -2.1061088447       13.4619338699       34.9123692088
  C         3.9907824643        8.5337041271       12.8871199477
  N         3.9355638147        7.1792743263       12.7836420830
  O         3.5621849698        5.3667769200       14.0281552816
  H         3.9233345146        7.9452605158       32.3125999056
  H         5.2516792250        8.9934325714       32.7297722318
  C         5.3471748247        8.0550913523       30.8042872526
  H        -5.4976497053        9.0811012392       25.1147549420
  H        -6.7156521798        8.8258839651       26.2710914172
  C        -7.0961944287       10.4935646550       24.7992666014
  C        -2.5368338635       16.2064370554       35.4047962743
  S         4.4508331393        9.4529977886       11.4249336590
  C         3.8367246148        6.4389050697       11.5576896792
  H         4.6527150897        7.9788179957       30.0178739764
  H         6.0392851932        8.8090586244       30.4646462918
  C         6.1757216178        6.8120091154       31.2638290995
  H        -6.6225601028       10.3745311462       23.8830172245
  H        -6.9588407398       11.5737708122       25.0332134827
  C        -8.5422037743       10.0393384599       24.6863925010
  H        -2.3197548863       17.2596149811       35.4157580922
  C        -3.0841862744       15.8453805620       36.5666418215
  H         4.5269391274        6.8463320372       10.8425621487
  H         4.1706475324        5.3907492688       11.5726353431
  C         2.3414344328        6.3281667396       11.1159948355
  H         6.7113957212        7.0952077680       32.1674446286
  H         6.8570943143        6.6988986357       30.4905030382
  C         5.4375042724        5.4770625950       31.5358950830
  H        -9.0795527814       10.6275490734       23.8931401146
  H        -8.5825871048        9.0331846079       24.2429180696
  C        -9.3332968644       10.2380975083       25.8955165993
  S        -3.4622073163       14.2244578700       37.0280098243
  C        -3.3197409066       16.8763870724       37.6087837906
  H         2.3059968903        6.0410971157       10.0669570840
  H         1.8027998069        5.6975826801       11.7503845181
  H         1.8066194440        7.2924210542       11.0729768704
  H         4.9831124562        5.6322338063       32.4670230525
  H         6.1295063519        4.7158495601       31.3348066526
  H         4.5878540399        5.3663929111       30.9121252045
  H       -10.3887799955       10.0594135455       25.6202413880
  H        -9.0341729102       11.2070869222       26.2867628703
  H        -9.0314737025        9.5885752916       26.6979222606
  C        -3.9310681828       14.8834782179       38.6026082595
  N        -3.8005354266       16.2415428397       38.7582729078
  O        -3.1453676790       18.0708209354       37.4962999954
  S        -4.8392775045       13.9644489799       39.8237771098
  C        -3.9683432787       16.8607711063       40.0371567180
  H        -4.6178661939       17.6886459785       39.9113937220
  H        -4.4284052817       16.1684469625       40.7679385475
  C        -2.5998864350       17.3102503069       40.5238089911
  H        -2.6199175731       17.9861573405       41.3954569299
  H        -1.9614657632       16.4674633263       40.8059072488
  H        -1.8973909769       17.8478953262       39.8197723714
