352
 i =    71700, time =    71700.000, E =        24.7034416374
  H        12.3800984713        5.6492303144       32.4257800751
  C        11.2882342981        5.9091352952       32.4022263890
  H        10.7170721020        5.0281744169       32.1636108516
  C        10.8489844712        6.7156575140       31.1489549618
  C        10.8531514275        6.5334634012       33.7189224272
  C        11.5435885887        6.2451810910       29.8951798235
  H         9.7990808499        6.5805891114       30.9772247662
  H        10.9987537117        7.7435312476       31.3366352332
  H        11.1528543029        7.6249465067       33.7404376255
  H         9.8432773033        6.3555587229       34.0118312957
  H        11.4900824301        6.0953228286       34.4890694055
  C        10.5573957443        6.2026893954       28.6642700151
  H        11.9255617858        5.2804460003       30.0955612060
  H        12.3787583198        6.8453311323       29.5802057076
  C        11.1721586682        6.2029770903       27.3475023360
  H         9.7893406614        5.4366647362       28.7708492366
  H         9.9013665781        7.0204507907       28.7918162263
  C        10.2164051226        5.4834605741       26.3666703305
  H        12.0593670957        5.6889647515       27.3722371319
  H        11.2799389004        7.1900861884       26.8260047337
  C         8.9201159775        6.1891122368       26.0963987502
  H        10.7426326713        5.3635801466       25.4639994641
  H         9.9576717042        4.5057734953       26.7890737139
  C         7.8010778184        5.3150992729       25.3809717160
  H         8.5484252602        6.5076244654       27.0469486664
  H         9.1268454178        7.1309652578       25.7031275288
  C         7.4865424648        3.9714431852       26.0525649399
  C         8.1909460032        4.6029007078       24.0901496520
  C         6.5593653933        6.1810937062       25.1759216139
  C         7.7799393562        2.8813534585       25.2546788522
  C         6.9783772130        3.6090843464       27.2967004435
  C         8.1472548272        3.2559007533       23.9924493079
  C         8.5141228958        5.3585224297       22.9828391643
  H         6.3638871482        6.4287460256       24.1389791741
  H         6.7318902670        7.1643153542       25.5733610267
  C         5.2489955939        5.8263211753       25.8809795032
  S         7.2324685577        1.3565178217       25.9313631914
  C         6.7067624482        2.2727360038       27.3860780031
  H         6.5868504540        4.3753668064       27.9461999419
  C         8.2303546976        2.7038482729       22.7365686244
  H         8.6389223706        6.4418329285       23.0055000490
  C         8.7384484522        4.8185329085       21.7506747867
  H         5.1081422484        4.7617680618       25.9356875615
  H         5.2968135154        6.2150113344       26.9001285355
  C         4.1109085474        6.5551977091       25.1430780082
  C         6.2045455272        1.5715522770       28.6181497768
  C         8.6469698068        3.4390171986       21.6054564916
  H         7.9143886583        1.7138779806       22.7079581482
  C         9.0633450958        5.2552598582       20.4491499440
  H         3.8424267112        6.0814956068       24.2193010118
  H         4.5469595736        7.4904015306       24.9080677685
  C         2.8543339760        6.7250475575       25.9646225805
  C         6.2090331722        0.1839428568       28.9265013188
  C         5.5533937262        2.4249375000       29.6396452301
  C         9.0296489342        2.8183353211       20.2898472434
  C         9.2246289809        4.1982307285       19.6058389835
  S         9.5068582502        6.7634579750       19.7392606036
  H         2.1660881905        7.2848668165       25.3720154909
  H         3.1147067748        7.3136285990       26.8191081712
  C         2.2825230745        5.3710210683       26.5087702730
  N         6.8104732839       -0.7855161069       28.1063628980
  C         5.7244478375       -0.3823051898       30.1081231210
  C         5.1913828145        1.8533205104       30.8307750941
  H         5.1921459981        3.3875736428       29.4837906759
  C         7.8044710907        2.2207231603       19.5002910780
  C        10.3110406826        1.9612299278       20.1922158698
  C         9.6446696620        4.5702991744       18.3752733421
  C         9.7523401241        5.9189608107       18.2727694141
  H         1.5429031407        4.9391934093       25.7977294018
  H         3.0561535338        4.6269440410       26.5728593208
  C         1.5881009916        5.4707780060       27.8498146605
  S         6.6015237596       -2.1994675937       28.8978355207
  N         5.9397054482       -1.7151317214       30.2813500629
  C         5.3336610785        0.4804984068       31.1967177316
  H         4.7939243157        2.4886597873       31.5826090417
  H         7.4902043962        1.3517824404       20.0411265430
  H         8.0241323487        1.9066787257       18.4903649963
  C         6.6005414450        3.2303091719       19.2532251121
  H        10.4608868956        1.6987549787       19.1506496388
  H        10.2033778123        1.0418707606       20.7241974069
  C        11.5690663176        2.7409548560       20.7190262035
  H         9.9061812230        3.8084538220       17.6350990236
  C        10.0209239231        6.7316223036       17.0363925088
  H         0.8973614825        4.6181603484       28.0489675685
  H         0.9660886404        6.3846965391       27.9190408960
  C         2.5326235916        5.3954469096       29.0386808163
  C         5.1405648196       -0.0648803094       32.5127226835
  H         6.7674240215        3.7565332937       18.2510798296
  H         6.3801715671        3.9642443679       20.0562022023
  C         5.2413047929        2.4580379999       19.0716644470
  H        11.2970995071        3.1908890744       21.6612414966
  H        11.7228063655        3.5685953013       20.1322420241
  C        12.8079680461        1.8588564074       20.9447163573
  C        10.1149562844        8.1040848816       16.9302586574
  C        10.3201420269        5.8784315340       15.8662779328
  H         2.9346342626        4.3895171042       28.9831106751
  H         3.2115038754        6.2180268716       28.8592679399
  C         1.9869010011        5.6743480226       30.4844733053
  H         5.4953554928       -1.1139048568       32.5485828553
  C         4.8656383534        0.4452418995       33.7895966973
  H         4.4657830067        3.2547448308       19.1185008208
  H         5.0447836908        1.8705658858       19.9227685616
  C         4.8819279249        1.8229578251       17.7235171405
  H        12.6214542636        1.2955858729       21.8880835424
  H        13.1791266817        1.2161725882       20.1279576190
  C        13.8690109519        2.8487778768       21.3392050439
  N         9.8447452466        9.1187605284       17.9300746403
  C        10.4517519457        8.7181641625       15.7424036926
  C        10.7406788225        6.5152289946       14.6643736178
  H        10.3697765083        4.7897645369       15.8061290725
  H         1.3715151785        4.9501987339       30.8512553557
  H         2.9361680681        5.7618561247       31.1372218163
  H         1.4816673683        6.6240883172       30.4409487440
  S         4.4855009959        2.0405153019       34.3031857860
  C         4.8074508524       -0.5826935089       34.8875999313
  H         4.9878514006        2.5615950663       16.9995177911
  H         5.6516053259        1.0845441895       17.4657643313
  C         3.4929059139        1.1719657508       17.6983072029
  H        13.5146733132        3.3940500838       22.2301572654
  H        13.9825020909        3.4914693340       20.4899321214
  C        15.1745269570        2.1980791906       21.6748596036
  S        10.0293564705       10.5891103727       17.2827544514
  N        10.5609911222       10.1093691233       15.7945578116
  C        10.7825939530        8.0024042179       14.5299483874
  H        10.9823627315        5.9685729943       13.7931853973
  C         4.1202993514        1.2941099650       35.9010417477
  N         4.3256228912       -0.0292038687       36.0025203633
  O         5.1313397993       -1.7780762046       34.7612459114
  H         3.3234977609        0.8336918952       16.6803234071
  H         2.6728202065        1.7930939585       18.0863145336
  C         3.3493360124       -0.1725988075       18.5230248724
  H        15.0025969586        1.1934669032       22.1400604621
  H        15.7202436223        1.9604522302       20.7847871048
  C        16.1359726167        3.0652906225       22.5614129039
  C        11.2240697104        8.7614044849       13.3484457853
  S         3.4895883057        2.1112726547       37.2489713903
  C         4.1685724379       -0.8740515761       37.2221701473
  H         3.8108999038       -0.1772731834       19.4427949401
  H         2.2717903643       -0.2009056620       18.7235565530
  C         3.6225841116       -1.3954337220       17.6048350021
  H        15.6759981389        3.3039550770       23.5109494620
  H        16.3643451782        3.9998925880       21.9981785921
  C        17.5379173171        2.4002627757       22.8122569154
  H        11.3662719452        9.8537647664       13.4744796971
  C        11.7046102022        8.3713453099       12.1623250946
  H         3.3486240645       -0.4847225483       37.8723892385
  H         3.7015929047       -1.9028536155       37.0162969912
  C         5.5396415324       -1.0202094695       37.9545630953
  H         4.0221661065       -2.2730746492       18.1275245448
  H         4.3222987170       -1.1346253527       16.8654344930
  C         2.4023226073       -1.9805269114       16.8792231274
  H        17.9818000787        2.7801597971       23.7156859617
  H        17.4757464563        1.3142011923       23.0530034014
  C        18.4829267225        2.6480856848       21.6198345694
  S        12.1857036322        6.8212451704       11.6701975493
  C        11.9607942881        9.4470142183       11.1754552192
  H         5.9239875351       -2.0474670266       38.0033784243
  H         6.2611287274       -0.3824131407       37.3830216410
  H         5.5830922274       -0.5658466673       38.9984798932
  H         1.7443861637       -2.5665554316       17.5223051882
  H         2.6003013886       -2.4897323270       15.9477709662
  H         1.7039648375       -1.1551728202       16.6350555643
  H        18.2966366583        3.4693254230       20.9696278913
  H        18.4257916947        1.7168063930       21.0869662394
  H        19.5210282192        2.7738464373       21.8889270432
  C        12.6838518307        7.5649734016       10.0963989406
  N        12.5250633432        8.9375793525       10.0693425365
  O        11.5080109390       10.6186728889       11.3261029960
  S        13.1406623096        6.7129496601        8.6685603049
  C        12.6784509389        9.8194334529        8.9231091606
  H        12.7849940624       10.8363342392        9.2677038798
  H        13.6475612434        9.4530820546        8.5061044655
  C        11.5358804642        9.6428445000        7.9416483518
  H        11.3477919574       10.6622233114        7.4579692176
  H        11.9997142155        9.0858674569        7.1432805492
  H        10.7112313533        9.0440767194        8.2523411771
  H        -2.5797782654       15.3711383201       16.4509859603
  C        -2.6848852462       14.3053732645       16.3351446938
  H        -3.7753790787       14.0579691866       16.4828519545
  C        -1.7955841108       13.9603559238       17.5047838659
  C        -2.3754871050       13.7540968264       14.9798986894
  C        -2.4966790822       14.0227254533       18.7780568394
  H        -1.4633543897       12.9150210309       17.2989393993
  H        -0.9270790304       14.6242771226       17.4527309332
  H        -2.3596160588       12.6126436314       14.8081073017
  H        -3.1084388165       14.0975780406       14.3003901294
  H        -1.3450837719       14.1959135817       14.6902153358
  C        -1.5547290484       13.9401501978       19.9478904867
  H        -3.1749398475       13.1784544312       18.7744580615
  H        -3.1402634409       14.8931010728       18.8027827947
  C        -2.2738727063       13.4268263968       21.2772632915
  H        -0.7745304121       13.2109365663       19.7058812257
  H        -1.0454113685       14.8629093624       20.2383404274
  C        -1.2212957177       12.7956784871       22.2070831510
  H        -2.9012075054       12.5941636161       21.1518323834
  H        -2.8115106897       14.2837059314       21.7503743171
  C        -0.1885382276       13.8223456518       22.6781635946
  H        -1.6238022433       12.3068821652       23.0650349896
  H        -0.7884975808       12.0013106658       21.5662920123
  C         1.0748408199       13.2364902885       23.4490547517
  H         0.2795744964       14.3558410392       21.7987297057
  H        -0.6589283738       14.5689235097       23.3396131110
  C         1.5595840650       11.9029105110       22.8015342541
  C         0.7661296070       12.5360534744       24.6970787040
  C         2.3020227496       14.2812277368       23.6035405103
  C         1.3230339779       10.8055569429       23.5860305476
  C         2.1325771178       11.5679827839       21.5465128768
  C         0.8061685137       11.1569612888       24.8084828365
  C         0.2872280828       13.2242649898       25.8517000144
  H         2.4180040994       14.7678178909       22.6381668432
  H         1.9014288969       15.1265560290       24.1312149508
  C         3.6884004445       13.6678053687       24.0476358658
  S         1.7672523857        9.3949132724       22.8340096771
  C         2.2510345083       10.2296135728       21.3947060446
  H         2.1749256973       12.3256615910       20.8381896490
  C         0.3277750566       10.5697792061       25.9119094664
  H         0.2438438984       14.3001127758       25.8999854087
  C        -0.1298780760       12.5710264272       26.9573072958
  H         4.0066611445       12.9102498659       23.3149552272
  H         3.5033732427       13.1600517014       24.9906657225
  C         4.8637320376       14.7476150383       24.1360966132
  C         2.6275918911        9.5394490660       20.1075128896
  C        -0.1169372714       11.2080507182       27.0450100633
  H         0.4649817791        9.4964232230       25.9652706658
  C        -0.4846520235       12.9016468801       28.2613083332
  H         5.4769843163       14.2723829262       24.8735884386
  H         4.5481481643       15.6908168544       24.5744725033
  C         5.5811464552       15.0297635080       22.8239285019
  C         2.6353677137        8.1717931412       19.8111838378
  C         2.9573533602       10.4714737910       18.9505553530
  C        -0.5280786409       10.4666389530       28.2898129221
  C        -0.8351613040       11.7699263774       29.0005488360
  S        -0.6748977347       14.3307488889       29.1964772519
  H         6.1598873950       15.8813049492       22.9027634194
  H         4.7730454018       15.2546950674       22.0523081241
  C         6.4318271469       13.8301281836       22.3919001662
  N         2.4758028504        7.1435987685       20.7627330010
  C         2.9254610653        7.6709915234       18.5251864798
  C         3.2103601390        9.9267513347       17.6771121759
  H         3.1561057312       11.5902468708       19.0422592522
  C         0.5932856636        9.7434331651       29.0048013562
  C        -1.8182281345        9.6277157032       28.2001404828
  C        -1.2742820521       12.0803803604       30.2673230287
  C        -1.2009960427       13.4004313979       30.5526200075
  H         7.1894111043       13.6049213452       23.1496818315
  H         5.8798530345       12.8855261601       22.1386062409
  C         7.2245248927       14.0727017097       21.1030295824
  S         2.7492287321        5.7236232001       19.9672541079
  N         3.0465958201        6.2514851573       18.4891134568
  C         3.1908513273        8.4488017894       17.3399943811
  H         3.5796794641       10.6467102431       16.9511422843
  H         0.7494760552        8.8182871811       28.5045719069
  H         0.2089097490        9.3225199508       29.9614073021
  C         1.9089046668       10.4632775627       29.2341898775
  H        -1.6769846367        8.9133200390       27.3965857459
  H        -2.0951121955        9.0186966846       29.1268140454
  C        -3.0551623180       10.4165858613       27.7013489713
  H        -1.5730977987       11.2619800618       30.9167202655
  C        -1.5259032978       14.0682785785       31.8640177211
  H         7.9274948032       13.2595539780       21.0677454980
  H         7.8542795419       14.9935354606       21.1534423698
  C         6.4602681944       14.0893240874       19.8183926578
  C         3.4278006792        7.7539837002       16.0717772348
  H         2.3759533995       10.7696963142       28.2758596128
  H         1.7851092900       11.3774328237       29.7634809405
  C         3.0132680192        9.4607205664       29.7362701040
  H        -2.7769269606       11.0650033896       26.8492850214
  H        -3.4518107865       10.9931915713       28.5323785493
  C        -4.2214202763        9.5989612770       27.2284011725
  C        -1.6540169559       15.4365984861       32.0349639189
  C        -1.7310569124       13.2298460681       33.0934625087
  H         5.8066921170       13.1828038345       19.7677122602
  H         5.9263859551       14.9973016787       19.7012964958
  C         7.3201974258       13.8046551112       18.5971468020
  H         3.2349755682        6.7021481520       16.1938639088
  C         3.7878805810        8.1729908963       14.8422345593
  H         3.5099519597        9.0695950859       28.8957139295
  H         2.6102573271        8.5554336496       30.2317699615
  C         4.0483083688       10.0918113105       30.5918112571
  H        -3.9786065648        9.2941653512       26.2401378062
  H        -4.2660593616        8.6559025167       27.7266704907
  C        -5.4141161799       10.5127082732       26.9172289954
  N        -1.4045977664       16.4725811867       31.0801825938
  C        -2.0553662438       16.0290266407       33.2623214997
  C        -1.9934265060       13.8251789959       34.3614051924
  H        -1.6020897389       12.1470618879       33.0602835228
  H         8.2636112969       14.4119034981       18.5632542074
  H         7.6662076585       12.7889559641       18.3410584504
  H         6.7189695476       14.2198011771       17.7750829594
  S         3.9890647065        9.7883417005       14.3038908936
  C         3.8100084651        7.1315369866       13.7758251716
  H         4.3275027032       10.9938579701       30.0165871639
  H         3.6741779103       10.3532474081       31.5681783262
  C         5.3966136569        9.3441572935       30.7426654307
  H        -5.0827142811       11.3175026643       26.1530636043
  H        -5.6053552678       11.0913132865       27.7928138990
  C        -6.6598741322        9.8332312452       26.3532576838
  S        -1.5119686636       17.9318604721       31.8409882080
  N        -2.0604125845       17.4547016484       33.2771985774
  C        -2.2906666905       15.3174469901       34.4231079907
  H        -2.0822707498       13.2177580775       35.2038879189
  C         4.2645226493        9.0975960642       12.7010704829
  N         4.2461397573        7.7386105029       12.6764954363
  O         3.6746201269        5.9104080569       14.0416365203
  H         6.0453946619        9.9283659451       31.3133941767
  H         5.7612185685        9.3329924176       29.7393070292
  C         5.2063222831        7.9067051787       31.2403630501
  H        -6.2782647822        9.0259381849       25.8041897418
  H        -7.4108608090        9.4292240848       27.0639040436
  C        -7.3742362988       10.7803475891       25.3163671911
  C        -2.6223638238       16.0671953718       35.5922308654
  S         4.9589219910       10.0278938476       11.3329711104
  C         4.4414714457        6.9802372214       11.4584877863
  H         4.5511054211        7.9464701896       32.1029506104
  H         4.7094766911        7.3688596020       30.4316847230
  C         6.4230827486        7.2164252531       31.7936705294
  H        -6.6164794955       11.0967222704       24.5831528048
  H        -7.6420299196       11.6394659289       25.9094934160
  C        -8.5301591684        9.9770163817       24.6218974492
  H        -2.6721272118       17.1540661408       35.5070206559
  C        -3.2190895935       15.6706085837       36.7332190502
  H         5.3311497240        7.3176352365       10.9973069312
  H         4.7215829518        5.9445146748       11.6403369786
  C         3.1269707128        7.0450804885       10.6173046909
  H         6.4383990475        7.3885227907       32.8334489660
  H         7.2456729102        7.7137445512       31.2450844335
  C         6.5281304314        5.8424165772       31.4644600669
  H        -8.7551885456       10.3115092995       23.6010323251
  H        -8.1481859420        8.9451517559       24.6373189706
  C        -9.7686811643        9.8750607537       25.4447076258
  S        -3.7695918963       14.0910023791       37.0507302792
  C        -3.3322609670       16.5712535503       37.9005977750
  H         2.2396352216        7.2063993207       11.2838459657
  H         3.2730742235        7.8544958960        9.9218817607
  H         3.0025560218        6.1255991590       10.0721992260
  H         7.5273678938        5.6250826748       31.1237725363
  H         5.8456552396        5.5227828419       30.6206609941
  H         6.3129368877        5.1773026967       32.2993490363
  H        -9.4545852590        9.7299843868       26.4603518675
  H       -10.4705800553        9.0631117793       25.1554146284
  H       -10.2650079148       10.8095252429       25.4871277461
  C        -4.1325749557       14.6736620186       38.7078485800
  N        -3.9350366684       15.9636397717       38.8806294648
  O        -2.9194740032       17.6924665046       37.8603192008
  S        -5.0665983328       13.8690417668       40.0372925006
  C        -4.0663858799       16.6704607859       40.1864247464
  H        -4.3046953844       17.7107546432       39.8715946995
  H        -4.9486070306       16.4065550418       40.7634138717
  C        -2.7605849810       16.6445566181       40.9811775027
  H        -2.0294420973       15.9592035199       40.5329224259
  H        -2.2592401034       17.6135689331       41.0207170357
  H        -2.8104216905       16.4060282738       42.0293142513
