352
 i =    64600, time =    64600.000, E =        24.9127006418
  H        10.2710135256        4.6564710138       31.4104296248
  C        10.4894039626        5.5847999475       31.8918863377
  H         9.5185992548        6.1675641905       31.9164766394
  C        11.3307434335        6.4284043612       30.9185470064
  C        11.1872824002        5.3795754974       33.2441356946
  C        11.7808376135        5.7856356664       29.4985742098
  H        10.7652493263        7.3164956752       30.7218172621
  H        12.2093150858        6.7275685670       31.4679657370
  H        10.6467882298        4.7011241743       33.9003685069
  H        12.2025316016        4.9445054528       33.1376539461
  H        11.2429404916        6.3067760263       33.7603696822
  C        10.5802792085        5.5241282537       28.5637712723
  H        12.3500923330        4.8934971041       29.6461176143
  H        12.4917090605        6.4523585511       29.0100458022
  C        11.0723467631        5.1671757822       27.1558707437
  H        10.0624267579        4.6536766545       28.8235545106
  H         9.9076317245        6.3922218612       28.5653550300
  C        10.0033802778        4.5689556532       26.2666948139
  H        11.8402551191        4.4212186282       27.1914901287
  H        11.5206051966        6.0866903496       26.8505558186
  C         8.7485288221        5.4306473264       26.0313469566
  H        10.3900930935        4.4837024857       25.2220480270
  H         9.6350365319        3.6425238997       26.5353473194
  C         7.6002381692        4.5881441374       25.3369996049
  H         8.2880389916        5.6512205526       27.0595038317
  H         8.9894558991        6.3999991742       25.6582060627
  C         7.2674479071        3.2774069692       26.0039906955
  C         8.0346406031        3.8230158412       24.1048045407
  C         6.4417444156        5.4357456779       24.9089298908
  C         7.4019778125        2.1268516385       25.2297564566
  C         6.9299255104        2.9475749374       27.3010823525
  C         7.9071149037        2.4646905105       24.0215297090
  C         8.4418919203        4.4127319083       22.9189668541
  H         5.9858151605        5.1575349188       23.9503176174
  H         6.8524099362        6.3995289003       24.7260036951
  C         5.2709737473        5.7288657601       25.8713214630
  S         6.7659774107        0.7214523568       25.9796237492
  C         6.5693923471        1.6447302777       27.4261012498
  H         6.9835221878        3.6617757980       28.0713447427
  C         8.1930622400        1.8267018300       22.8410754346
  H         8.4874301973        5.4955693481       22.9351606026
  C         8.7766882199        3.8160718562       21.7982766181
  H         5.2619547050        4.9265314740       26.6825563183
  H         5.5380515207        6.6129040224       26.4797128470
  C         3.8762638984        6.0016177154       25.1933149196
  C         5.9362331687        1.0819063613       28.6766617955
  C         8.6824617375        2.4826876673       21.6751317883
  H         7.9460431445        0.7921761419       22.7095607383
  C         9.1980609176        4.1864765496       20.5401173961
  H         3.6927260222        5.3053523912       24.3781929686
  H         3.8013910321        6.8935021169       24.5304948221
  C         2.8057720432        5.9859824332       26.3501620935
  C         5.8781004324       -0.2948285490       28.9631461375
  C         5.7412400279        1.9655413779       29.8609364524
  C         8.9149748742        1.7363756259       20.3775295831
  C         9.2687407645        3.0879892070       19.6525996468
  S         9.5220790480        5.7023941934       19.7732771484
  H         1.9234367839        6.4093422575       25.8916354112
  H         3.2192250890        6.5719493578       27.1360192457
  C         2.3693526410        4.6196876548       26.8591931720
  N         6.1231397698       -1.3222921289       28.0251822377
  C         5.4668203553       -0.8348704718       30.1837125358
  C         5.2997629772        1.4314226928       31.0689711513
  H         5.8828321294        3.0382065079       29.7808186222
  C         7.5420244578        1.0887932869       19.8841697561
  C        10.1786684014        0.7838775933       20.3771115061
  C         9.7505647545        3.5009653774       18.4079953051
  C         9.7577796953        4.8620811950       18.2591701495
  H         1.6518059603        4.1953306719       26.1411413626
  H         3.3062899284        4.0344607031       26.8636266558
  C         1.8435049930        4.5742314087       28.2360030209
  S         5.8645715545       -2.8157242768       28.6949048460
  N         5.3791510334       -2.2116294725       30.1966733230
  C         5.1484963821       -0.0498282737       31.3022966872
  H         5.1817324158        1.9887582302       31.9607044367
  H         7.1762450672        0.2983986360       20.5148308407
  H         7.7178576431        0.5832951293       18.9509240726
  C         6.3513715657        2.0265425744       19.7336016426
  H        10.1608692407        0.1906140289       19.4435988729
  H        10.2439844002        0.0142305387       21.0957766285
  C        11.5488464407        1.4407510838       20.3340399511
  H        10.0985356875        2.7861211547       17.5919146339
  C        10.1364234450        5.6061707660       17.0082599650
  H         1.0331230014        3.7880204807       28.3528405523
  H         1.2102941733        5.4183196435       28.4538965426
  C         2.9674915352        4.5591454150       29.2103855994
  C         4.8504767380       -0.7061436801       32.5340574799
  H         6.5879861999        2.6437775574       18.9131326836
  H         6.3521623769        2.7156181426       20.5935450952
  C         5.0144445698        1.4011519331       19.5099864323
  H        11.6174876954        2.2315475762       21.0422292413
  H        11.6917054898        1.7268688318       19.2532062293
  C        12.6481947121        0.4039337672       20.6985624627
  C        10.1822528586        6.9864348217       16.8877834288
  C        10.4926957312        4.8448459408       15.7570335849
  H         3.3821466646        3.6057927039       29.5443225640
  H         3.8026645645        5.0952359139       28.7404705135
  C         2.5093488306        5.2728283239       30.4725956097
  H         4.9768563514       -1.8507966302       32.5065331164
  C         4.6065625182       -0.2269008682       33.8477473775
  H         4.2711428994        2.1357994482       19.6904216757
  H         4.9121717179        0.6281178195       20.2536872684
  C         4.8835880594        0.7789861670       18.1301353316
  H        12.5027621030       -0.1312948077       21.5919893983
  H        12.7362416357       -0.3676917948       19.9195294650
  C        13.9665623400        1.0627968607       20.7002515092
  N         9.8172105586        7.8275131762       17.8998622602
  C        10.5610153648        7.6707802381       15.7359218496
  C        10.7943101916        5.5332526845       14.5726625504
  H        10.4101077809        3.7658223620       15.8335121622
  H         2.7404222277        6.2854225795       30.4334921198
  H         1.4429770162        5.2162667310       30.6360989977
  H         2.8927686619        4.8126095577       31.3736228426
  S         4.6899841777        1.4374181253       34.3274753256
  C         4.5065524909       -1.1952130387       34.9815484253
  H         5.3266111477        1.4848526157       17.4649136715
  H         5.5325350855       -0.1360056904       18.0541381293
  C         3.3872956271        0.7760789470       17.8144220493
  H        14.0126137624        1.9670895667       20.0723004356
  H        14.7145097135        0.2999908669       20.4228281522
  C        14.3743960653        1.5532973180       22.0827870708
  S         9.8661111871        9.3789765089       17.3895212218
  N        10.1951911596        9.0732338201       15.7954837557
  C        11.0091046089        7.0437645807       14.5146337542
  H        11.1231096715        4.9884661744       13.6916657964
  C         4.3075876009        0.7558500874       35.8931495882
  N         4.1689353069       -0.5747726644       36.0940197117
  O         4.6381262813       -2.4349414492       34.8331284113
  H         3.3727245778        0.5874627207       16.7497419623
  H         3.0520889511        1.8058831366       17.8800889293
  C         2.5145633485       -0.2116437010       18.5722841542
  H        13.5477267824        2.1954293664       22.4918469401
  H        14.3903761067        0.7258892894       22.8405567837
  C        15.7041465230        2.2645070618       22.2594393205
  C        11.3126312971        7.8693418920       13.3754075370
  S         4.0226617606        1.7437817008       37.2847511352
  C         4.0459810707       -1.1963414004       37.4399001856
  H         2.7054907514        0.0050013269       19.6184164250
  H         1.4070591028       -0.0392006744       18.4345884942
  C         2.9722234384       -1.6077071996       18.2766241832
  H        15.5001899842        3.2984509154       22.5668050219
  H        16.1690815984        2.5186708296       21.3480579887
  C        16.7086360468        1.6096549858       23.2997435767
  H        11.0524661510        8.9219834665       13.4617905557
  C        11.9528406454        7.5665546283       12.1538240395
  H         3.3958944932       -0.7620198917       38.2484842761
  H         3.6983497674       -2.2254518211       37.3287562999
  C         5.4069301458       -1.4193232850       37.9519925792
  H         2.2341245997       -2.2982144331       18.7894963765
  H         4.0090917335       -1.8089785699       18.6835989300
  C         2.9659306889       -2.0945393848       16.7908192669
  H        16.5305254171        2.0112129672       24.3062750544
  H        16.5266851129        0.5499756049       23.5484958857
  C        18.1691662014        1.7604358725       22.8597619284
  S        12.5181249058        6.0360195634       11.5994390128
  C        12.0161665465        8.7096667197       11.2382310712
  H         5.9022232107       -0.4875288185       38.1399752505
  H         5.4398176794       -2.0291796989       38.8478819419
  H         5.9120783308       -2.0730734515       37.2342918850
  H         2.8983988268       -3.1195542715       16.7234966848
  H         3.9616369719       -1.7567286496       16.4635460764
  H         2.2244927272       -1.6254619368       16.1862610241
  H        18.8548727564        1.0048295257       23.2627235846
  H        18.5014104676        2.7088322221       23.2060964058
  H        18.2377099675        1.5982673519       21.7872301421
  C        12.8571945689        6.9810966587       10.0658681613
  N        12.6750876026        8.3246740966       10.1204607601
  O        11.4673674484        9.7833988236       11.3751939111
  S        13.7792656271        6.3850786805        8.6226663940
  C        12.8629189522        9.2321007591        8.9187274137
  H        13.0231478058       10.2819607410        9.3278594885
  H        13.7234276834        8.9394878550        8.3673469538
  C        11.7209675584        9.1581434383        7.9115364660
  H        11.9826941055        9.5706179080        6.9341202597
  H        11.3836121190        8.1730671201        7.6161762863
  H        10.8342597048        9.5549140141        8.3517113646
  H        -1.5420121515       14.3496090745       16.5316174648
  C        -2.5265914879       13.8709838000       16.6301866083
  H        -3.2706924503       14.5804184690       17.0643030039
  C        -2.4547231879       12.7924556014       17.7172815390
  C        -2.9332161747       13.4020551085       15.2446374726
  C        -2.4791396831       13.3490407261       19.1648585308
  H        -3.3175446987       12.1829627242       17.6314562276
  H        -1.6049232470       12.1150073019       17.5499660149
  H        -3.8940204106       13.8214789329       15.0831570043
  H        -2.4133400990       14.0331373965       14.5943345137
  H        -2.8477817373       12.3539489311       14.9914267772
  C        -2.4272255748       12.1728028142       20.1399081937
  H        -3.3952340679       14.0233262477       19.2523533988
  H        -1.5286245149       13.9431201877       19.3294911414
  C        -2.8364553355       12.7578083918       21.5045473865
  H        -3.2304038623       11.4827771209       19.8107785571
  H        -1.4125310541       11.6750320907       20.0588471484
  C        -1.7353397813       12.3883335958       22.5127153035
  H        -3.7721569344       12.2879953255       21.8238126325
  H        -2.9020508490       13.8311882169       21.4092699589
  C        -0.4326420486       13.2046428037       22.6607790635
  H        -2.1979804108       12.2995301795       23.5723432047
  H        -1.5262085932       11.3468849514       22.3331897513
  C         0.7971550313       12.5475130284       23.2827422324
  H        -0.2094354825       13.5903154948       21.6919613022
  H        -0.5626724466       14.0864564619       23.2484964462
  C         1.2385491322       11.2365097735       22.5829349300
  C         0.4457259107       11.8095038654       24.5206292288
  C         2.0952276373       13.4378233942       23.3443947360
  C         1.1473562908       10.1503357160       23.4451018727
  C         1.7321078927       10.8421716337       21.3506580037
  C         0.6233685220       10.4957460141       24.6417314571
  C        -0.0230497695       12.4527132912       25.6714934516
  H         2.3959936034       13.6463917336       22.3702927856
  H         1.8479430774       14.4037718335       23.7480742862
  C         3.3125536297       12.7857281450       24.0367374869
  S         1.6081733180        8.6515527822       22.6924098945
  C         1.9489648450        9.4695481678       21.2431966731
  H         1.9623693735       11.5291511595       20.6523579424
  C         0.2324243415        9.8095632717       25.7628932724
  H        -0.0644576900       13.5671689756       25.6315117629
  C        -0.2962924118       11.7873951504       26.8411779615
  H         3.6746985102       11.9467135158       23.6151767693
  H         2.9665224216       12.6061598450       25.0765085291
  C         4.5018329698       13.7208333820       24.1955612605
  C         2.5644689002        8.7887499568       20.0206527927
  C        -0.2753647252       10.4220463908       26.9163843376
  H         0.2814199726        8.7192214392       25.7105375579
  C        -0.7257222602       12.1089192173       28.1220105086
  H         5.1092749112       13.2339273834       24.9673407661
  H         4.2051212959       14.6762480061       24.6185401184
  C         5.3376552857       13.9239055673       22.9399256142
  C         2.4984547793        7.3325814596       19.7138996479
  C         2.9734042007        9.5798787682       18.8776806659
  C        -0.6474578085        9.6039592354       28.1228773862
  C        -0.8543640671       10.9892559751       28.9048858315
  S        -0.9935208348       13.6000961926       28.9715463330
  H         6.0456173523       14.6294129881       23.3210914813
  H         4.7265097314       14.4181166165       22.2460117239
  C         6.0522577398       12.6057017424       22.4985284467
  N         2.0673762420        6.3487055525       20.6079485795
  C         2.9254018694        6.7289408620       18.5492154631
  C         3.2649033063        9.0094812467       17.6609956124
  H         2.8984833908       10.6966071883       18.8686028315
  C         0.5564735575        8.8188768212       28.5092570542
  C        -1.8700898474        8.7564433373       27.7866862928
  C        -1.2342941300       11.3958664124       30.1919912341
  C        -1.2457188673       12.7663123768       30.4324233435
  H         6.7041641743       12.3114091891       23.3079945915
  H         5.3675414756       11.8243960899       22.2351065509
  C         6.8775991797       12.8043769102       21.2802647074
  S         2.2508984301        4.9082912694       19.8911682902
  N         2.8093957088        5.3395686633       18.4815383717
  C         3.3054842858        7.5508371982       17.4327621673
  H         3.2805920916        9.6549263174       16.7933199897
  H         0.7293339552        8.0487943688       27.7194949742
  H         0.2684540535        8.1743946971       29.3598575531
  C         1.7816140294        9.7076125968       28.7843323879
  H        -1.6044657428        7.9774417124       27.0779325756
  H        -1.9963468422        8.1403675838       28.6416487863
  C        -3.1374849861        9.5109144285       27.3323869775
  H        -1.5227544383       10.6442160218       30.8662532626
  C        -1.4480366219       13.5216507567       31.7172364325
  H         7.6391215209       12.0475035688       21.1246643395
  H         7.4215376215       13.7898712776       21.3529861211
  C         5.9729016412       13.0243407613       20.0620837650
  C         3.5475920998        6.9486095458       16.1698879606
  H         2.1337818640        9.9140904978       27.7779650365
  H         1.5144987535       10.5904971792       29.3466367725
  C         2.8694662853        9.0191108139       29.6158599645
  H        -2.8585643539        9.9616609486       26.4174042773
  H        -3.4897793128       10.2755169173       28.0284767496
  C        -4.3442288194        8.7303296656       26.9049868623
  C        -1.6939274368       14.8864883866       31.8445675591
  C        -1.5888473182       12.7827459844       32.9914152650
  H         5.2856509462       12.2068890949       19.9132992537
  H         5.4956719797       13.9592411531       20.1729341489
  C         7.0117003919       13.1237353043       18.8482118625
  H         3.5199059382        5.8214538777       16.1788132645
  C         3.7646670989        7.4138675161       14.8876427061
  H         3.2967067309        8.3715966962       28.9170873748
  H         2.3706067470        8.4572556238       30.3711002756
  C         3.9362320441        9.9882243827       30.0909038053
  H        -4.0935725738        7.9560575895       26.2842765698
  H        -4.9205928609        8.2331054624       27.7439679431
  C        -5.3768527003        9.7620642667       26.3031061398
  N        -1.6533548537       15.8742439913       30.8195014692
  C        -1.9507768777       15.4668706587       33.0741651720
  C        -1.9413222117       13.3795723444       34.1734172942
  H        -1.3039039555       11.8369461015       32.9135040809
  H         7.7127028537       13.9185125889       18.8808125203
  H         7.6626892689       12.2383002743       18.6579754344
  H         6.3999839843       13.3183228472       17.9254875316
  S         3.7759244318        9.0657417082       14.3801780982
  C         3.9221695671        6.3863451990       13.8190591075
  H         4.0551449811       10.7180069291       29.2822362900
  H         3.6316943487       10.5487886409       31.0037427474
  C         5.3131699887        9.3836048617       30.2847633947
  H        -4.9987954777       10.2567916637       25.4309161666
  H        -5.5799933412       10.5051760431       27.0474345127
  C        -6.6990602790        9.0686973873       26.1037221958
  S        -1.6350019620       17.3200247239       31.5122340507
  N        -1.9563622255       16.8604365610       33.0193051654
  C        -2.1523974108       14.8240920461       34.2713341202
  H        -2.1035161582       12.7110117471       34.9709713493
  C         4.0072322002        8.3125559126       12.7272381854
  N         4.1475887411        6.9783035624       12.6888234382
  O         3.7968334701        5.2103681210       13.9860431715
  H         6.0096458777       10.1213297550       30.2655057898
  H         5.4995195121        8.9269345126       29.3366016589
  C         5.4009862791        8.3912029756       31.4195206965
  H        -6.6617700643        8.1574206284       25.5674169564
  H        -7.1043516953        8.7680089677       27.1354324786
  C        -7.7523829662        9.9099870970       25.4495387660
  C        -2.3761740119       15.5912883597       35.4538371148
  S         4.5597021525        9.2755974216       11.4000244697
  C         4.4351278562        6.1876026857       11.4633174121
  H         5.8842735732        8.7938467387       32.2773213008
  H         4.4799833198        7.9299388166       31.6932478439
  C         6.5264734462        7.4178141618       31.1565396373
  H        -7.3747689665       10.1937741804       24.4567150143
  H        -7.9673081025       10.8215991634       25.9601825747
  C        -9.1361295828        9.2526655877       25.3506586626
  H        -2.1251961515       16.6426082799       35.4200936927
  C        -2.7694743211       15.2223001659       36.7225075052
  H         5.1043751623        6.6136325703       10.7470347942
  H         4.9694615872        5.3425913016       11.6991755058
  C         3.1231119186        5.8211286927       10.8212396292
  H         7.0850545062        7.4065904878       32.0346206908
  H         7.1729668139        7.7829228891       30.3518609594
  C         6.1463287529        5.9940449564       30.7999686167
  H        -9.5636815517        9.5987531178       24.3880745100
  H        -8.9169084686        8.2474680825       25.1955296618
  C       -10.0599749753        9.6971349474       26.4232929145
  S        -3.2830894324       13.6264389941       37.2181770084
  C        -2.8133362526       16.2485733614       37.7448896104
  H         2.3847136591        5.3683882633       11.4866625640
  H         2.5606864675        6.6265056687       10.3864847668
  H         3.2389342662        5.0708371388       10.0422105006
  H         6.9163259884        5.4288224219       30.2478351515
  H         5.1423904246        5.8847743495       30.3806754086
  H         5.8121387067        5.4553989930       31.6913856945
  H       -10.8703278202        8.9786031983       26.6369448422
  H       -10.4607452136       10.6938622858       26.1550825468
  H        -9.5140780741        9.8439586759       27.4099862209
  C        -3.7756831047       14.3371936973       38.7159651580
  N        -3.5180097102       15.6862859667       38.7691895376
  O        -2.4235174917       17.4874479286       37.5862174869
  S        -4.6102287081       13.4600312224       39.9783923334
  C        -3.8199163950       16.4435644460       40.0380398671
  H        -4.0939301580       17.4656952895       39.9448778670
  H        -4.6291915013       15.9698806743       40.6270171174
  C        -2.6338511697       16.4830967897       41.0138957895
  H        -2.8579186397       15.8984851354       41.9345227301
  H        -1.7047386670       16.1688316737       40.4720809379
  H        -2.5444399525       17.5506351632       41.3094188801
