352
 i =    54800, time =    54800.000, E =        24.9730545012
  H        12.4303286008        5.0836155057       32.5934470713
  C        11.3661897461        5.2754378466       32.4984698792
  H        10.9587161158        4.3021452821       32.1729262799
  C        11.1813992299        6.3280035297       31.3837455711
  C        10.7595404922        5.6670395981       33.8655560874
  C        11.5195096935        5.9278611613       29.9452153163
  H        10.1090474140        6.4773584581       31.4628450017
  H        11.5194483659        7.3408386977       31.7186391028
  H        10.4022789165        4.7780095782       34.3619873121
  H        11.6445718518        6.1447731353       34.3192898498
  H         9.9358549441        6.3235528090       33.6885612615
  C        10.4063937172        6.1601160203       28.9482984409
  H        11.7251945693        4.8809719103       29.9277942667
  H        12.3541608307        6.4192537685       29.4733589490
  C        10.8411846997        5.8578415186       27.4374262215
  H         9.4764295089        5.5924191025       29.2640245891
  H        10.0099738358        7.1609378829       29.1482699188
  C         9.7803944797        5.1319502172       26.5824665670
  H        11.7604309584        5.1887220844       27.3952878787
  H        10.9520733883        6.8793645141       27.0458109263
  C         8.6183964725        6.0324188147       26.1739622596
  H        10.2380596986        4.7401663333       25.6740943678
  H         9.4580528137        4.2626417173       27.1482045021
  C         7.3858504001        5.3468126918       25.5318291218
  H         8.3725163440        6.6095778115       27.0482491005
  H         8.9796682064        6.7574750073       25.4344774223
  C         6.9997069864        3.9631087378       26.2256768359
  C         7.8510078250        4.5466114443       24.3166249128
  C         6.1120555893        6.1978641109       25.4441617546
  C         7.2802995162        2.8758949376       25.4104389798
  C         6.5022560397        3.6533628409       27.5093486452
  C         7.7577929220        3.2060400987       24.2022088745
  C         8.3506324995        5.1376707019       23.1605202487
  H         6.2303114051        7.0475863490       24.8091931601
  H         5.9621890431        6.6602830319       26.4733104250
  C         4.8275285440        5.4691047717       25.0134490199
  S         7.0332165173        1.3735088529       26.2108767486
  C         6.3786256273        2.2853186125       27.6410769688
  H         6.3184139298        4.3858994847       28.2386571654
  C         8.0671041411        2.5573047480       23.0789396735
  H         8.4561544449        6.1736923368       23.2206490497
  C         8.6719305054        4.4641182787       22.0438864760
  H         4.9516208966        5.3628565170       23.9227748439
  H         4.7515874335        4.4840052594       25.4654545864
  C         3.6145317514        6.3516810525       25.1533800577
  C         5.8835523987        1.5428232826       28.8103786739
  C         8.6836371987        3.1156106511       21.9466316764
  H         7.8231252444        1.4909343425       23.0890470009
  C         9.1209749902        4.7488910723       20.7962884300
  H         2.9334652664        6.0532338920       24.3396951441
  H         3.6711110077        7.3834508367       24.7403569552
  C         2.9253448546        6.2830872566       26.4866238951
  C         5.9874110029        0.1621203836       29.0696553004
  C         5.2257443914        2.3897429965       29.8832149291
  C         8.8468929115        2.3477485281       20.6954305857
  C         9.2616695721        3.6220332630       19.9654604603
  S         9.6169527676        6.2491491962       20.0703906579
  H         2.1203870987        7.0449717926       26.4943069793
  H         3.6347088994        6.6022271018       27.3062655524
  C         2.2025417789        5.0508997614       26.8431369768
  N         6.4166468360       -0.7951777966       28.1534726614
  C         5.6808216752       -0.3613459408       30.3093197226
  C         5.0010134169        1.8158096841       31.0977073957
  H         4.9654933555        3.4631313596       29.7726264666
  C         7.5793590859        1.7822048272       20.0068338137
  C        10.1074534658        1.5276638754       20.7216771288
  C         9.7535582372        4.0040093041       18.7398559277
  C         9.8399389545        5.3805379582       18.6067296507
  H         1.5196145250        4.7947323944       26.0169957831
  H         2.8858636124        4.1705776412       26.9013285669
  C         1.3564881704        5.1783090822       28.1603075921
  S         6.3380399490       -2.2834988421       28.8965372269
  N         5.8478910302       -1.7470332515       30.3220650120
  C         5.2070294203        0.3819440674       31.4082592801
  H         4.7519157573        2.4891729096       31.9001782363
  H         7.0607546329        1.2561439732       20.8004823959
  H         7.8798307965        1.1311627666       19.1827641757
  C         6.5633441690        2.7942066120       19.4630975430
  H        10.1907287097        0.9972603532       19.8070387542
  H         9.9762282344        0.7078362965       21.3971703658
  C        11.4318251193        2.1818128630       21.2328765756
  H         9.8395671211        3.2257814116       18.0117694867
  C        10.1336106065        6.0996078581       17.3326106894
  H         0.9923178272        4.1823944757       28.3173743052
  H         0.5400694931        5.9047334713       27.9386749393
  C         2.1030467847        5.5354765842       29.4696475436
  C         5.0343474019       -0.3459791258       32.6614829082
  H         6.9298221022        3.0554851629       18.4969005443
  H         6.3842972459        3.6294013361       20.1357599108
  C         5.2283120568        1.9933175532       19.3261954185
  H        11.2731548625        2.4379876147       22.2744440390
  H        11.5356712855        3.2412412451       20.7971219947
  C        12.6832312333        1.2559117045       21.2392480950
  C        10.2345217696        7.5097620140       17.2156606646
  C        10.2907834994        5.3728462513       16.1003630946
  H         2.9506032896        4.8104589370       29.6934630507
  H         2.5992922011        6.4861445559       29.3728409182
  C         1.2178761390        5.6810395471       30.6371171892
  H         5.3423570092       -1.3246310830       32.6537043226
  C         4.5590717020        0.0131539655       33.8839982639
  H         4.6309199164        1.9048779607       20.1651315288
  H         5.6126482370        1.0188454659       18.9909452646
  C         4.3948456470        2.3831560832       18.1204963745
  H        12.6152202437        0.5647990705       22.0458995257
  H        12.5094736468        0.6229101094       20.3419469802
  C        14.0018067693        1.9365348072       21.3580837726
  N        10.0579667703        8.4508778258       18.2890241313
  C        10.5175097224        8.1379687298       16.0515806757
  C        10.3281541811        6.0254420810       14.8598205171
  H        10.2221317151        4.2595213769       16.0953708521
  H         0.7285634581        4.7973417113       31.0461744162
  H         1.8660111021        6.1817042553       31.4496556147
  H         0.4327751481        6.4072424451       30.4679227036
  S         4.3207216177        1.6153285607       34.4032149097
  C         4.5967010527       -0.9564928511       35.0048473583
  H         4.3141478189        3.4867695490       18.1938234119
  H         4.8802543646        2.2106777704       17.1280595421
  C         3.0565552632        1.7318464938       18.0890231143
  H        13.7816966864        2.8351119053       20.7129290061
  H        14.7577981544        1.3603049556       20.9259999361
  C        14.3824660108        2.2450463875       22.8431190574
  S        10.4035232018        9.8979780467       17.7176617634
  N        10.5961922416        9.5241307130       16.1745342119
  C        10.6865971499        7.4311651696       14.8295580534
  H        10.2195197974        5.4067233857       13.9646310171
  C         4.0302162599        0.9609744520       36.0042101988
  N         4.1352627797       -0.3965982058       36.1509843603
  O         4.8596208607       -2.1670145043       34.8952013283
  H         2.3747174466        2.2260364854       17.4878710908
  H         2.5271113206        1.6240240489       19.0757697290
  C         3.1859508144        0.4017048907       17.4542444343
  H        13.8316070970        3.1551554305       23.0944931575
  H        13.9876340615        1.4391350248       23.4549258547
  C        15.7848072033        2.4938795120       23.2098674216
  C        10.8762948184        8.2176005931       13.6725518306
  S         3.6249454529        1.9147455318       37.4615323494
  C         4.2960650382       -1.0346098880       37.4403241023
  H         3.0753672386        0.4668672959       16.3700821041
  H         4.1344382176        0.0072172082       17.5596100706
  C         2.1524627230       -0.4474651752       17.9743610459
  H        15.9806974399        2.1135964316       24.1639887860
  H        15.9061349155        3.5472596991       23.2235974686
  C        16.9295079768        1.8487261796       22.3402038716
  H        10.7447048568        9.2683006649       13.6812859208
  C        11.4009604619        7.9326872301       12.4426784332
  H         3.4841875410       -0.7603179942       38.0895026705
  H         4.1179957126       -2.0859633042       37.0575544726
  C         5.6388267703       -0.8278705692       38.1282353987
  H         1.2444703715        0.1608713135       17.9648259371
  H         2.2404858408       -0.7184521732       19.0364830542
  C         1.7684203305       -1.7045156027       17.1655052829
  H        16.6631417866        0.7882877931       22.1195481405
  H        16.9747866913        2.4876550759       21.4213323171
  C        18.2440529412        1.9188598465       23.0536460238
  S        11.9851933302        6.4198462205       11.9584314602
  C        11.4899028397        8.9809182827       11.3926674394
  H         6.2290621270       -1.7628536396       38.1140840409
  H         6.2051622616        0.0013696148       37.7915054246
  H         5.4752608004       -0.6597308828       39.1248163868
  H         2.6601995830       -2.2888659857       16.8716927696
  H         1.1009502372       -1.5129422312       16.3262396611
  H         1.2887293413       -2.4777537266       17.8122198756
  H        18.1736149365        1.3464339561       23.9263458763
  H        18.6688649596        2.9002790213       23.2956115211
  H        18.9785487091        1.5835310753       22.3228770843
  C        12.1187125563        7.0965641191       10.3190254093
  N        12.0328894424        8.4409000975       10.2547449803
  O        11.0304737450       10.1370308976       11.4500736662
  S        12.6935490591        6.2258142924        8.9143309616
  C        12.0575367443        9.2563112588        9.0627409988
  H        12.2680569366       10.2923453264        9.4218433893
  H        12.7960586084        8.8857569299        8.4311234500
  C        10.7625121464        9.2831947680        8.3186784543
  H         9.9350375640        9.6177341573        8.8547816886
  H        10.8391213161       10.0113617425        7.4980798414
  H        10.4174396094        8.2876816283        7.8834125779
  H        -1.3772031112       13.4828581461       17.3851051262
  C        -2.1089207133       14.0398818005       16.7124038030
  H        -1.6096623596       14.8019780055       16.1712621124
  C        -2.8864481574       14.6272021242       17.9147487782
  C        -2.8257911132       13.0504240776       15.8276832792
  C        -3.0873121773       13.8601180331       19.1728554120
  H        -2.3008589973       15.4589593673       18.2819256538
  H        -3.9249478464       14.8858081109       17.6646702141
  H        -2.1724897634       12.3714958303       15.3145361136
  H        -3.6554087130       12.5174087132       16.3369127433
  H        -3.3682997346       13.6537739487       15.1712506747
  C        -1.8314157488       13.5909585139       19.8823800540
  H        -3.6559661976       12.9710112012       18.9194518589
  H        -3.7707043521       14.4490890551       19.8721397173
  C        -2.0442770634       13.2891614876       21.3588147670
  H        -1.3949683898       12.6607344933       19.4610325865
  H        -1.0211580858       14.3143781578       19.7194580391
  C        -0.9070154448       12.6431998849       22.0805788359
  H        -2.8888932573       12.6270427632       21.2516770901
  H        -2.3807255205       14.2532545876       21.8574147157
  C         0.2947703843       13.6425075252       22.3713481234
  H        -1.2738349737       12.1739996071       23.0109426034
  H        -0.6066979168       11.8273709707       21.5069762716
  C         1.3883997627       13.0859774132       23.3553995272
  H         0.6687239159       14.0589424658       21.4438036131
  H        -0.1835767883       14.4703713711       22.9119689946
  C         1.7747924272       11.7477069187       22.6285553115
  C         0.8340737439       12.3463976912       24.5273715158
  C         2.5727122638       14.1096600419       23.5584758485
  C         1.3784109637       10.6230179894       23.3312320529
  C         2.3699280823       11.4703639680       21.4025134603
  C         0.8049572945       11.0078971314       24.5514643072
  C         0.3463768257       13.0673613241       25.6323494159
  H         2.8465724673       14.4162832177       22.6062871477
  H         2.2214291072       14.9887742838       24.1422959129
  C         3.8129698913       13.4901374275       24.2428180140
  S         1.8738812534        9.2097489597       22.4729475974
  C         2.4973701707       10.1207617721       21.1891637051
  H         2.5838122040       12.2838155519       20.7465458001
  C         0.3420562441       10.3915910460       25.6787792678
  H         0.3988616867       14.0744665984       25.6842663934
  C        -0.0907139248       12.3921145642       26.7174934049
  H         3.9693380269       12.7290644437       23.5519044606
  H         3.5405302029       12.9578462672       25.1181114111
  C         5.0030996806       14.4041363687       24.4604023277
  C         3.0206136980        9.4670262183       19.9193776329
  C        -0.1365836478       11.0540292101       26.7913627036
  H         0.2995225026        9.3066619868       25.6205069908
  C        -0.5445933148       12.7607613595       27.9384379068
  H         5.6237374039       13.7274819675       25.0599420333
  H         4.7315935264       15.2527007010       24.9813799302
  C         5.7569344720       14.7988985594       23.1195875160
  C         3.0576554149        8.0578696983       19.6710300180
  C         3.5267970758       10.2602731013       18.7969852173
  C        -0.5767246121       10.3308321459       28.0328182354
  C        -0.8098936819       11.6531911398       28.7758764546
  S        -1.0861073851       14.2629250292       28.5800948586
  H         6.4981896518       15.5726233434       23.3629494691
  H         5.0229155696       15.1073323464       22.3389085682
  C         6.5117791156       13.5193587534       22.5538405556
  N         2.6980438512        7.1042918386       20.5881667772
  C         3.2545437365        7.5464181680       18.4172851667
  C         3.7041544729        9.7223803539       17.5528371948
  H         3.5115968318       11.3497016956       18.8350363991
  C         0.6010645808        9.5152474317       28.7669761752
  C        -1.8509826380        9.5675382742       27.7529785257
  C        -1.0753961609       12.1355648768       30.0990261474
  C        -1.1545562582       13.5144995404       30.1448329168
  H         7.2638148959       13.1393768508       23.2792468830
  H         5.7432770660       12.7122872117       22.3641681378
  C         7.0743959875       13.5417003207       21.1219394753
  S         2.8890258947        5.6486129539       19.8574682199
  N         3.2673228808        6.1341071879       18.3630671146
  C         3.6408953553        8.3131563611       17.3146206336
  H         4.0655209262       10.4263568474       16.8278719263
  H         0.8916280164        8.6908729703       28.0815616975
  H         0.3073005927        9.0939786905       29.6722554479
  C         1.9494864089       10.1507041036       29.0554271797
  H        -1.7177106892        8.8024826367       27.0248220459
  H        -2.1850460277        9.2243309206       28.7603287425
  C        -3.0738792380       10.3498088918       27.2249441731
  H        -1.3319136153       11.4823541792       30.8807072174
  C        -1.3864711595       14.3573925110       31.3509250022
  H         7.7961402242       12.6815600627       21.1513776149
  H         7.7232092464       14.4126898476       20.9618317190
  C         6.1499151854       13.5623356997       19.8952527582
  C         3.8413488099        7.6736980843       16.0160138621
  H         2.5941421784       10.2150185010       28.1780979932
  H         1.8059041218       11.2213982054       29.3205424312
  C         2.6430960628        9.5584775380       30.3090282549
  H        -2.7896405224       10.7341274832       26.2488288406
  H        -3.2680862271       11.2377421377       27.8697197710
  C        -4.3243951837        9.5433667384       27.1024606147
  C        -1.6122421779       15.7521480870       31.3893559862
  C        -1.5181079028       13.7123520120       32.6520177342
  H         5.5678143751       12.6657750038       19.9585109521
  H         5.4905128384       14.3983765679       19.9662269703
  C         7.0089590347       13.6076573429       18.6458622661
  H         4.1344256068        6.6508897367       16.0201778572
  C         3.9472220354        8.2400930702       14.7625206144
  H         2.8174104395        8.5536599147       30.0171802394
  H         2.0872791253        9.4919166003       31.2207985009
  C         3.9722783651       10.2405981769       30.5851988971
  H        -4.3774201131        8.8470395895       26.3176553072
  H        -4.4421565676        9.0071940003       28.0707294625
  C        -5.5736795309       10.4142647169       26.8291142301
  N        -1.3672900729       16.6200129794       30.3121693390
  C        -1.9006356095       16.4543873470       32.5557917757
  C        -1.9187485315       14.3401638742       33.7349615498
  H        -1.2912227849       12.6548318060       32.6750232014
  H         7.5627347854       14.5130352374       18.5583826207
  H         7.7434153550       12.8303008798       18.5389857411
  H         6.3671824729       13.5136871262       17.7906669516
  S         4.0599320053        9.9167168099       14.3348225686
  C         4.2017344469        7.3104966881       13.6008596166
  H         3.9232211908       11.2425905563       30.1173296042
  H         4.0673664124       10.3675671926       31.6787226422
  C         5.1125073003        9.3572702494       29.9606403553
  H        -5.1149234617       11.2424999679       26.3107524738
  H        -6.0800276377       10.6878534210       27.7918498446
  C        -6.6099797916        9.6366065446       26.0332921684
  S        -1.6049414975       18.1184176826       30.7525004596
  N        -2.0338265495       17.8192283757       32.2876601903
  C        -2.1261115345       15.7965689659       33.7980138314
  H        -1.9470689064       13.7968363403       34.6037693994
  C         4.5449996999        9.3758491046       12.7009183841
  N         4.5893486551        8.0352011905       12.5707074775
  O         4.1404376229        6.0738784083       13.7785485120
  H         6.0389233238        9.9402168214       29.9498038689
  H         4.9009071571        8.9920421296       28.9630222179
  C         5.4272670484        8.1655622052       30.9023361499
  H        -6.2538968935        9.0001312886       25.2126128556
  H        -7.2704980900        9.0570710644       26.6609046646
  C        -7.4854902571       10.6264852475       25.2220164332
  C        -2.4963220409       16.6219805432       34.9433733434
  S         4.7107084671       10.3355520365       11.2860037775
  C         4.7548205861        7.3635582338       11.2607433929
  H         6.1316818418        8.5685625415       31.6662000734
  H         4.4712129595        7.7666395996       31.3949925555
  C         6.1390385234        7.0004502247       30.1170196011
  H        -6.8645505428       11.1599888927       24.5715119967
  H        -7.9026378188       11.3717158008       25.9133621204
  C        -8.5968322638        9.9272638536       24.4558015779
  H        -2.2396212478       17.6912060982       34.8599033892
  C        -3.0465702289       16.2481027828       36.1528788579
  H         5.5900918759        7.8117162003       10.7718991112
  H         4.9739911792        6.3211263926       11.4009950673
  C         3.4560724858        7.3801001623       10.3580457079
  H         6.8738031070        7.4280487092       29.4878829922
  H         5.4132399778        6.5432929759       29.3725460541
  C         6.8119356990        6.0343777669       31.0336985751
  H        -8.6569014754       10.4300059405       23.4964062480
  H        -8.3163031371        8.9218400545       24.2934103526
  C        -9.8822457855        9.7233388042       25.3527086562
  S        -3.4902646239       14.6358114912       36.5381061766
  C        -3.1732630857       17.3133584360       37.2132959875
  H         2.8928331516        8.2979459425       10.4721495526
  H         3.7056130197        7.1577320184        9.3397398271
  H         2.8003243496        6.5115074281       10.6134131140
  H         7.5065422763        6.6269378190       31.5845539717
  H         7.3063713918        5.2509622354       30.5139275601
  H         6.0934377420        5.5105371311       31.7006345744
  H        -9.7752563136        9.1751575279       26.3232189835
  H       -10.4460246368        9.0627964283       24.6679288833
  H       -10.3826714629       10.6188801649       25.6361500424
  C        -3.8820040666       15.3536644603       38.0802198819
  N        -3.7143514856       16.6924552069       38.2337380713
  O        -2.6756976489       18.4560045861       37.1566170048
  S        -4.3844119718       14.4212131182       39.5224020209
  C        -3.8553527831       17.5347519695       39.4384718953
  H        -4.4401198029       18.3885282240       39.1998567253
  H        -4.5588556699       17.0456152376       40.0873124583
  C        -2.6159152959       17.8501333705       40.2635504863
  H        -1.9316014299       18.4950097702       39.7307309183
  H        -2.9702278767       18.5306798432       41.0324490064
  H        -2.1084228341       16.9803753648       40.6336291234
