352
 i =    82600, time =    82600.000, E =        25.0913134197
  H        11.0451958320        7.4938143947       31.1687049159
  C        11.7572926606        6.6938498749       31.5393409672
  H        12.6315672718        7.2325545994       31.7487609206
  C        12.1579750720        5.6523249793       30.4947122895
  C        11.5418120284        5.9852324103       32.8360688570
  C        10.9494298844        4.8167377138       29.9830084424
  H        12.4563064475        6.1756883485       29.5966601116
  H        12.9766352101        5.0072662221       30.9175665082
  H        12.4609051519        5.7057087343       33.2523490851
  H        10.8711684619        6.5017251664       33.5174256352
  H        11.0946930845        5.0079579910       32.6470867236
  C        10.2457237099        5.5881411603       28.8982557519
  H        10.1542234248        4.6877040995       30.7457785724
  H        11.2588495378        3.8601291207       29.6126048088
  C        10.9302413756        5.4728935875       27.5465221779
  H         9.2430300283        5.0345787261       28.8759527235
  H        10.0256052239        6.6408134604       29.1606079800
  C        10.0444053460        4.9308877489       26.4110442036
  H        11.7993580852        4.8709358017       27.7502722944
  H        11.2851582032        6.4178651718       27.0933146068
  C         8.7964494000        5.8499660656       26.0572235357
  H        10.4900945691        4.5969304862       25.4850458530
  H         9.7907177585        3.9960902894       26.8319327193
  C         7.6702854539        5.0979188006       25.2953922599
  H         8.5582039240        6.2920438846       26.9716492376
  H         9.0594243304        6.6945316917       25.4324745840
  C         7.3504222434        3.7592203668       26.0190134692
  C         8.1730184744        4.4209741247       24.0777376301
  C         6.5286102470        6.0725262573       24.8375168299
  C         7.7325208322        2.6347241383       25.2311003850
  C         6.8537588891        3.4332101764       27.2912565014
  C         8.1952071305        3.0387594874       23.9579689709
  C         8.6181914308        5.1427442504       22.9917956143
  H         5.9845488260        5.7001936903       24.0115123579
  H         6.9097388970        7.0184219922       24.4435751037
  C         5.5415631026        6.4660105725       25.8748051190
  S         7.2901869087        1.1082289559       26.0213012314
  C         6.7750566508        2.0974461390       27.4212143189
  H         6.4573526319        4.1537445641       27.9614990436
  C         8.4919560804        2.5008158370       22.7272477379
  H         8.4916571715        6.2282115287       23.0680207432
  C         8.9632793912        4.5840725874       21.7665500762
  H         5.8260850229        5.9734751547       26.7676304868
  H         5.5603263245        7.5133200137       26.2155973337
  C         4.1627001298        5.8959609975       25.4849457540
  C         6.2602784154        1.4599840712       28.6819512719
  C         8.8655494624        3.2544994180       21.6319684486
  H         8.6619731833        1.4509580077       22.6868143031
  C         9.3363427555        5.0477503205       20.5618889913
  H         4.1341959071        4.8218606359       25.2911532852
  H         3.9539251613        6.3986181623       24.5135756799
  C         3.0714326339        6.2946636755       26.5592039458
  C         6.1624061790        0.0765988666       28.8778574198
  C         5.6276225691        2.1920987379       29.8078590516
  C         9.2142109419        2.6901744390       20.3095316070
  C         9.5703382746        4.0302860381       19.6503352730
  S         9.6075428158        6.6286981312       19.8468921843
  H         2.1776721698        6.7636922895       26.1250736429
  H         3.3860764891        7.0378394689       27.1947722650
  C         2.6326422180        5.0823748463       27.3472271071
  N         6.5181202924       -0.8948301059       27.9312928853
  C         5.6704434928       -0.5766670901       29.9936780143
  C         5.2032443690        1.5827349265       30.9640726098
  H         5.3210674479        3.2569748789       29.7860584829
  C         8.0747022044        1.9413314776       19.6815840144
  C        10.5497561415        1.8616438313       20.2810543660
  C         9.9602501059        4.5468893238       18.3901242082
  C        10.0213366206        5.8587970642       18.3461572647
  H         2.3493471225        4.3575496643       26.5328254679
  H         3.4939657797        4.5860982613       27.8989448056
  C         1.4586101978        5.2775889001       28.3343708399
  S         6.4189457557       -2.4287388380       28.4775147062
  N         5.8655930830       -2.0009966356       29.9722470678
  C         5.3401508733        0.1165218831       31.1559795454
  H         4.6369157271        2.1665935351       31.6892965195
  H         7.6013598941        1.3045239385       20.4852940224
  H         8.4000976584        1.3170564121       18.7838537301
  C         7.0024617508        2.9005500815       19.0854001283
  H        10.8326015715        1.4704251186       19.3120682477
  H        10.4618929486        0.9857897146       20.9159080347
  C        11.7510742424        2.6060574729       20.8138668544
  H        10.1029376075        3.8136810997       17.5802218213
  C        10.1258785629        6.6231221583       17.0832124690
  H         0.9503079397        4.2938848091       28.4794478335
  H         0.6557200344        5.8758878863       27.9386041601
  C         2.0171885643        5.9825451203       29.6146059147
  C         5.1200879912       -0.5247606418       32.4047676846
  H         7.3157118035        3.4074889404       18.1654905356
  H         6.7743341512        3.6583328963       19.8187080099
  C         5.5834131124        2.2701915242       18.8960239399
  H        11.4696752464        3.1267822216       21.7267159879
  H        12.1973054135        3.3599196910       20.0984482895
  C        12.9422756228        1.6952400003       21.2208596446
  C        10.1325255577        8.0401203082       16.9875664426
  C        10.4442914024        5.9063095340       15.8706356499
  H         2.7869094540        6.7981594169       29.4152453409
  H         1.3012566085        6.6267074601       30.1283590980
  C         2.4676562496        4.9718669048       30.6997932564
  H         5.1374777388       -1.5585929310       32.3137628476
  C         4.8378536038       -0.1131822116       33.6753126907
  H         4.9614671159        3.0781144048       18.7290494875
  H         5.0748132632        1.7569686233       19.7200057981
  C         5.5727970616        1.4788648795       17.6277339196
  H        12.6974905075        1.0164787920       21.9912038922
  H        13.3364889798        1.1379414763       20.3812243115
  C        14.0961504857        2.6293190167       21.7600696168
  N        10.0453785449        8.9599036450       18.0346871476
  C        10.5724012733        8.7255471312       15.8138300625
  C        10.8761955309        6.6075581441       14.7326656428
  H        10.6114743276        4.8305961773       15.8494315048
  H         1.7903297216        4.7849738568       31.5293858406
  H         2.6086909310        4.0172121264       30.1562599443
  H         3.5421172739        5.0806783338       30.9426745126
  S         4.4591815691        1.4408367285       34.1972781460
  C         4.7104635298       -1.2193883128       34.6856691432
  H         5.8573769450        2.0082899135       16.6932411786
  H         6.3000698194        0.7362008726       17.7640177716
  C         4.3070706667        0.7388101404       17.2868152735
  H        13.6306137674        3.3196683033       22.5249552135
  H        14.6563074600        3.1966354401       20.9766623082
  C        15.1118977964        1.8742811757       22.5669639187
  S        10.1788903871       10.5239068838       17.5141963009
  N        10.7101125836       10.1253080404       16.0044725121
  C        10.9789208748        8.0959668740       14.6570232667
  H        11.2549369427        6.0346257867       13.9086510984
  C         4.1442465640        0.6561746637       35.7556097819
  N         4.2520855110       -0.7088851797       35.8596407139
  O         4.7545154914       -2.3866137375       34.3490577605
  H         4.3807095287        0.4402909484       16.1962467046
  H         3.4871661334        1.5541614347       17.2304363333
  C         3.8682238679       -0.3643797927       18.2607427452
  H        14.6557892249        1.2278880075       23.2866312371
  H        15.6208672262        1.2135732948       21.8820508091
  C        16.1051763410        2.7922115756       23.2311664056
  C        11.3854837431        8.7919557605       13.4868003481
  S         3.9130530744        1.5608795679       37.2444613671
  C         4.2141138833       -1.4151568519       37.1044120386
  H         4.6203943546       -1.1319522221       18.0968937229
  H         3.9965431042       -0.0747421065       19.2499012398
  C         2.3787965981       -0.7559760055       17.9873079570
  H        15.7905682288        3.2158500309       24.1399445885
  H        16.3314329661        3.6155707920       22.6364800644
  C        17.4369207920        2.0467829171       23.5014873608
  H        11.4086343896        9.8188980163       13.5432807210
  C        11.8908792695        8.3334166607       12.2798569751
  H         3.5544783429       -0.9744339166       37.8390644932
  H         3.6115469227       -2.3181521616       36.8525683363
  C         5.5883413810       -1.7981939296       37.6225935193
  H         1.6967898014       -0.0124930791       17.6533614770
  H         1.9455637244       -1.0207885049       18.9715416907
  C         2.2486595456       -1.7836096469       16.9369239704
  H        17.9233096798        2.5274649042       24.3339049420
  H        17.1549974118        0.9441378031       23.7504703470
  C        18.5919590781        2.0661197969       22.4765697169
  S        12.2670987342        6.7218038236       11.6460385871
  C        12.0965609876        9.3541812565       11.2496306482
  H         6.0980104210       -2.4739836967       36.8738473849
  H         6.2873135819       -0.9919723671       37.7661331518
  H         5.5994128114       -2.2144476840       38.6005665523
  H         1.2316474031       -1.8749137735       16.6172466131
  H         2.5735700234       -2.7669907308       17.3431705334
  H         2.8308461273       -1.4084675812       16.0941710467
  H        18.6172797106        2.9431123414       21.8871086885
  H        18.5680820136        1.3513641161       21.6855896663
  H        19.5757251297        1.9864304937       22.8438403473
  C        12.6885181555        7.4230830606       10.1422015785
  N        12.6035773710        8.7558297964       10.1181422641
  O        11.9386466145       10.5556418163       11.4620020694
  S        13.4681137606        6.5701333381        8.7955505486
  C        12.8862822213        9.5632680971        8.9630387592
  H        13.1404869624       10.5714428461        9.3091144661
  H        13.8170991759        9.2162489755        8.4880941435
  C        11.6567441482        9.6101815407        8.0385961148
  H        10.7553422382        9.6045885887        8.5937361907
  H        11.7014166034       10.3717647269        7.2440928121
  H        11.6152570352        8.7115576843        7.3789249931
  H        -3.4823368525       14.4868400095       16.7082755143
  C        -3.0469782634       13.4340006874       16.7059899173
  H        -3.8581257429       12.7499762588       16.8524281586
  C        -1.9550435550       13.5077824198       17.7734243597
  C        -2.4568879467       13.1717897720       15.2933646848
  C        -2.4425549026       13.4400773170       19.1986087687
  H        -1.1538203559       12.7974971156       17.6382648744
  H        -1.6149821155       14.5175516011       17.5655095633
  H        -1.8854326471       13.9773241635       14.7932222190
  H        -1.8062190416       12.3718120824       15.4882724044
  H        -3.1012892200       12.7354871178       14.5150489334
  C        -1.3903465318       13.7515749192       20.2316382194
  H        -2.8260401791       12.5026251471       19.4699503936
  H        -3.2330953868       14.2085792740       19.3183395029
  C        -1.8302543890       13.7146386293       21.6800315058
  H        -0.4733938111       13.1515409804       20.0354583384
  H        -1.0718606962       14.7243762894       20.0207380346
  C        -0.8323099928       13.0076339840       22.6091190252
  H        -2.7781582084       13.2118239375       21.6871895485
  H        -2.0269627230       14.6973115555       22.0429349283
  C         0.4619741586       13.8902132662       22.8277169064
  H        -1.3320317977       12.6664584834       23.4995163664
  H        -0.5128074137       12.0985327569       22.1159582162
  C         1.6153124826       13.1924809860       23.6708182319
  H         0.8132216305       14.1928018540       21.8893738082
  H        -0.0273837197       14.6470957509       23.3829567772
  C         2.0829210650       11.9515364390       22.8962278156
  C         1.1052762095       12.3629434908       24.7678872184
  C         2.7758042511       14.1230847029       23.9979976781
  C         1.7575582050       10.7785686439       23.5618705222
  C         2.7161337071       11.6814598406       21.6566687143
  C         1.1270130927       11.0089452092       24.7352274984
  C         0.4586848189       12.9119879853       25.8477254264
  H         3.0194531343       14.7126894099       23.0959251206
  H         2.3758419077       14.9109540961       24.7078551817
  C         4.0984336171       13.3819054885       24.3912183699
  S         2.1778543502        9.3383583470       22.6687305168
  C         2.6821686748       10.3274409179       21.3657976459
  H         3.0038966768       12.4791752072       21.0227198004
  C         0.5311377248       10.3550366401       25.7658268121
  H         0.5566931392       14.0134524342       25.9114596483
  C        -0.1016112976       12.2739410401       26.8983571553
  H         4.4289031059       12.6470585464       23.7172032826
  H         4.0044079020       12.8729836818       25.3431627326
  C         5.4062629110       14.2986075095       24.4663743742
  C         3.0719173811        9.6858797908       19.9907491253
  C        -0.1110550604       10.9181526793       26.8746591222
  H         0.5051041976        9.2514771664       25.7417191869
  C        -0.5640360307       12.5836830863       28.1618214061
  H         6.2379213774       13.7956558128       25.0385158200
  H         5.1009416336       15.1843575796       25.0272964805
  C         5.8951801678       14.5780932606       23.0565864752
  C         3.0527936014        8.2897607336       19.7359944285
  C         3.4564622193       10.5825756342       18.8322254736
  C        -0.5059172878       10.0658138084       28.0093944382
  C        -0.8939777790       11.3794047489       28.7644243196
  S        -0.9165781080       14.0380387943       28.9802252149
  H         6.3300137044       15.5584898545       23.1403408921
  H         5.0930192706       14.6654135576       22.3112967988
  C         6.7741955746       13.3947100127       22.5481929747
  N         2.8459540260        7.2095798852       20.6608112677
  C         3.2269629671        7.7436013839       18.4590015459
  C         3.6184757733        9.9754774701       17.5926928898
  H         3.6837844827       11.5897682866       19.0365020041
  C         0.6978222580        9.3686266003       28.7113017664
  C        -1.6706638333        9.1300769906       27.6738619247
  C        -1.4163409466       11.7150756765       30.0113452290
  C        -1.4576809090       13.0577755226       30.2664540638
  H         7.5085146056       13.2324329861       23.3724381992
  H         6.1285450842       12.4674351099       22.5352594677
  C         7.5684738570       13.7394716353       21.3404482117
  S         2.8750420717        5.7603353726       19.9002812808
  N         3.1824132934        6.3249899591       18.3929066156
  C         3.4401039318        8.5202333071       17.3374219168
  H         4.0925099948       10.5555542490       16.8155691895
  H         1.0740969456        8.5849664693       28.0379654954
  H         0.3648996757        8.7107691792       29.5236419779
  C         1.8451415242       10.2615932444       28.9943882515
  H        -1.5163717188        8.6290782782       26.7131920401
  H        -1.8327657084        8.3567392993       28.4272688068
  C        -2.9542092007        9.9386145051       27.6150727681
  H        -1.6413299304       10.9361307879       30.7104945355
  C        -1.7004384150       13.6724784005       31.6604417794
  H         8.3879862375       12.9586086642       21.2550924779
  H         8.1097276448       14.7512520361       21.4057270789
  C         6.6513961837       13.6690790955       20.0923643683
  C         3.7266176164        7.8794791012       16.0623454884
  H         2.1371380792       10.9834046775       28.1689746882
  H         1.6339142717       10.9701152958       29.7829510958
  C         3.0639463379        9.5811028143       29.4634633451
  H        -3.0308801347       10.7323661124       26.9012340441
  H        -3.0685708103       10.3011131134       28.6375470874
  C        -4.0954359123        9.0118001991       27.2993611470
  C        -1.7214544334       15.0420098749       31.9149370222
  C        -1.8556821047       12.8435000191       32.8886999784
  H         6.0498910105       12.7952639950       20.1607069452
  H         5.8849795258       14.4659495673       20.0521192061
  C         7.4629503938       13.5779748239       18.8035976218
  H         3.6631602776        6.8567583672       16.0567199258
  C         4.0170917969        8.2032165358       14.8255633187
  H         3.4775615755        8.8031174728       28.8322524856
  H         2.6945483051        8.8853965128       30.2533896853
  C         4.1312941821       10.5471121955       29.9940872382
  H        -3.8786642978        8.5409731948       26.3363801067
  H        -4.2480842849        8.2617452576       28.0895372116
  C        -5.4796447606        9.7280068003       27.0674715389
  N        -1.4563073578       16.0591982814       30.9774172780
  C        -2.0044109566       15.5701781364       33.1998625044
  C        -2.1000282372       13.3412894280       34.1703323648
  H        -1.8419918935       11.8204158520       32.7640340424
  H         7.9482429992       14.4993959527       18.4062223105
  H         8.2610761515       12.7990560940       19.0344725765
  H         6.7057943397       13.3828198598       18.0345000003
  S         4.2482194182        9.8089496233       14.2488316060
  C         4.3285532157        7.1611661452       13.7672240582
  H         4.4981818355       11.0446137748       29.1280492906
  H         3.6778514036       11.2571691177       30.7170098256
  C         5.3111662656        9.8328643897       30.6435234052
  H        -5.6911698854       10.7029076081       27.5831860245
  H        -6.2846230394        9.0520153728       27.3145057714
  C        -5.5968974148       10.0173693944       25.5430247532
  S        -1.5766481611       17.4445547225       31.7458878375
  N        -2.1897490980       16.9496696941       33.1880992092
  C        -2.1996064089       14.7963083819       34.3509167301
  H        -2.2325338852       12.5736412469       34.9123659084
  C         4.6651471317        9.1268453349       12.6815121787
  N         4.6506686223        7.7388706414       12.6256455255
  O         4.4008684824        5.8889239833       13.9752469612
  H         4.8557566178        8.9539418265       31.1624090667
  H         5.6840759793       10.4703912022       31.4416315040
  C         6.4472286628        9.3073664494       29.6486808121
  H        -4.7762543798       10.6404551393       25.2295877389
  H        -5.6022543774        9.0764567823       25.0504800658
  C        -6.8811003327       10.7606299231       25.1247356364
  C        -2.4458299460       15.3783673094       35.6246783254
  S         5.0507261824       10.0387928618       11.2464410239
  C         4.8366201161        6.9377463332       11.4564086757
  H         6.1716931000        9.8207817421       28.6932001458
  H         7.4013887394        9.6958512181       29.9269234641
  C         6.6096838991        7.8315124874       29.5171437515
  H        -6.7427298537       11.0829314939       24.1368967375
  H        -6.8958191028       11.6633222306       25.6884947866
  C        -8.2508791204       10.0694490688       25.2926492464
  H        -2.2524567384       16.4574840608       35.6369198471
  C        -3.0186662675       14.9761885740       36.7896215297
  H         5.7300421249        7.2434150261       10.9307992249
  H         5.0541209540        5.9679827120       11.7477675989
  C         3.4668343931        7.0260327857       10.7168100713
  H         7.1393488428        7.6447392946       28.6666213093
  H         5.6138191757        7.4164542461       29.2709232002
  C         7.1442869309        7.1017884799       30.7815931373
  H        -8.8400551215       10.2353747568       24.4133003386
  H        -8.0694224148        9.0273952881       25.3280710460
  C        -8.9549700195       10.3561114999       26.6080471001
  S        -3.6450620070       13.4135705540       37.2003025312
  C        -3.0850946729       16.0655898597       37.8155642099
  H         2.9710347771        6.0492666641       10.9529647889
  H         2.8250833278        7.8442197472       11.1503361585
  H         3.4638603014        7.1844285422        9.6410572157
  H         6.4794847779        7.2271822542       31.6102917964
  H         8.1166237358        7.3572324695       31.1428566658
  H         7.3277133329        5.9915928639       30.6732092958
  H        -8.2677890353       10.0599736760       27.4014864660
  H        -9.8056120995        9.7518675753       26.7307216161
  H        -9.2362996963       11.4200971990       26.6680811119
  C        -4.1350647618       14.2788544006       38.7469184188
  N        -3.8254208740       15.6357337884       38.8152389533
  O        -2.6939747979       17.2267864965       37.6537176798
  S        -4.8218126585       13.5406947040       40.1912428871
  C        -4.0629206039       16.5598803188       39.9218647548
  H        -4.2767696162       17.5975121103       39.6071030978
  H        -5.0054006050       16.3813133887       40.3881767993
  C        -2.9843750909       16.5220762316       41.0464850734
  H        -2.2646355378       17.3090626246       40.9505990629
  H        -3.4854444212       16.6151679026       42.0054745416
  H        -2.3549463465       15.6356030826       40.9924229167
