352
 i =    42200, time =    42200.000, E =        25.1163026665
  H        11.3946990512        7.4042105556       31.9076247484
  C        11.2394557272        6.3408852099       31.8395041052
  H        12.1316208914        5.8665553838       31.4659404055
  C        10.1081067064        5.9100196892       30.8763352142
  C        11.1010325073        5.7993345414       33.2717641978
  C        10.2040120753        6.3434743105       29.3877947385
  H        10.1265057173        4.7703350042       30.7694085656
  H         9.0995314275        6.0687696170       31.2671012130
  H        10.0636053382        5.6003759769       33.5556536178
  H        11.6879616346        4.8661183140       33.2542096373
  H        11.4445847023        6.5232120327       33.9988147108
  C        10.7672681580        5.2534651191       28.5362141015
  H        10.7266766146        7.3199652441       29.3364847806
  H         9.1255400253        6.4813650600       29.1711959350
  C        10.9753326539        5.6672128213       27.0518869893
  H        11.6984103514        4.9025372615       28.9819054357
  H        10.1567717670        4.3529000634       28.4764114351
  C         9.9367225757        5.1542063473       26.0607908657
  H        11.8901694773        5.2175352954       26.6819222577
  H        11.0744695270        6.7446239148       27.0059760886
  C         8.7284551582        6.1183041693       26.0157615789
  H        10.3075539468        4.9319042677       25.0766178975
  H         9.6072332645        4.1741136312       26.3723920289
  C         7.4899726789        5.4040116883       25.3611610275
  H         8.3348535623        6.2647358242       26.9705603101
  H         9.0124915952        7.1125280335       25.5841514763
  C         7.1320823649        4.0814753269       25.9740311342
  C         7.8512097615        4.7767312197       24.0553401053
  C         6.2574316660        6.3597214180       25.2369693650
  C         7.3407759631        2.9760161634       25.1113809789
  C         6.5851348028        3.6300217159       27.1919682645
  C         7.7802902412        3.4131618660       23.9215231982
  C         8.2195056281        5.4465598793       22.8952178603
  H         6.4850697766        7.0732318396       24.4360779572
  H         6.1793031906        6.8912692818       26.1746572811
  C         4.9963832305        5.5731110717       24.7508993506
  S         6.9138557639        1.4595392443       25.8263226847
  C         6.3819332718        2.3094054690       27.2827166324
  H         6.2415810007        4.3335286698       27.8934354705
  C         8.1568481272        2.8122626094       22.7335177297
  H         8.3358348678        6.5158493589       22.8767721240
  C         8.4738615843        4.8457048638       21.7125770064
  H         5.2440126286        5.0733927435       23.8099876467
  H         4.7481019944        4.8374944639       25.5176910269
  C         3.7904314852        6.5468104467       24.4042488997
  C         5.9134477840        1.6063966025       28.5587071130
  C         8.5270348492        3.4965578816       21.5890819324
  H         8.1821112112        1.7130387911       22.5914280467
  C         8.9153012998        5.2568030348       20.4899670362
  H         3.1246779000        6.0221750176       23.7397313311
  H         4.0954299481        7.4504824203       23.7773879143
  C         3.0662490325        7.0027547493       25.6897604677
  C         5.9621499727        0.1590054663       28.7435119320
  C         5.4059469525        2.3141412169       29.7725460505
  C         8.8541557857        2.8097065312       20.3678946612
  C         9.1203197291        4.2051195339       19.6589073696
  S         9.2964608957        6.7908498562       19.7379712020
  H         2.4972319882        7.8413446956       25.2399157636
  H         3.7274101914        7.4860396122       26.4227128244
  C         2.2580431900        5.8443113923       26.3539293249
  N         6.2665217621       -0.7727918449       27.7571606374
  C         5.6319650308       -0.4628117096       29.9354356807
  C         5.0940345886        1.6877917093       30.9604796521
  H         5.4294250737        3.3585506999       29.6908311478
  C         7.6649326207        2.0659242523       19.6710870300
  C        10.2215290524        2.0033579697       20.4554818846
  C         9.5410947883        4.6153597263       18.3674433380
  C         9.6458596226        5.9850921256       18.2233189256
  H         1.3816880524        5.4845632655       25.8178740004
  H         2.9219644847        5.0653436268       26.4611417767
  C         1.7730780880        6.1153630008       27.7394121480
  S         6.1660895642       -2.2407370184       28.3329383072
  N         5.7230436561       -1.8310194364       29.8604507503
  C         5.2653478509        0.2175535610       31.1254139687
  H         4.7961280506        2.2828729515       31.7755959305
  H         7.3297948127        1.3744176597       20.4232303489
  H         8.0161917333        1.4373217199       18.8274529589
  C         6.4296235217        2.8646024121       19.1387480862
  H        10.4082989639        1.6063205416       19.4846725561
  H        10.1569902843        1.0076151144       21.0197845942
  C        11.3860614833        2.8854295653       20.8483090710
  H         9.5830294629        3.8799305088       17.5820925100
  C        10.0661040176        6.6751615056       16.9650959672
  H         0.8290426516        5.5667789982       27.8809618598
  H         1.6542909794        7.1469165383       27.9709863531
  C         2.8443133325        5.6731744607       28.7252556379
  C         5.3033686267       -0.4978707456       32.3893115672
  H         6.7409456984        3.7128557450       18.5187191919
  H         6.0573871879        3.2698030237       20.0711229261
  C         5.4903323903        1.9496671714       18.3842611996
  H        11.3138759950        3.2399903295       21.9206462438
  H        11.4232465171        3.9067666535       20.3281889587
  C        12.7213733313        2.1052837744       20.7282393153
  C        10.1677142135        8.0766199757       16.8772034915
  C        10.5024243287        5.8790063199       15.7935618787
  H         3.2520553245        4.6641761360       28.6866000618
  H         3.6309486944        6.4276710798       28.6821278761
  C         2.2229566743        5.6809102752       30.1372605414
  H         5.4429827289       -1.5495071845       32.3531325626
  C         4.9569048256       -0.0780668611       33.6946205772
  H         5.4845850175        1.0732923606       19.0508928482
  H         5.9562278880        1.7851885266       17.3749051555
  C         3.9545714659        2.2251418290       18.3877592589
  H        12.6991423597        1.4604948409       21.5570457280
  H        12.7732870986        1.4802097815       19.8216564529
  C        14.0484905007        2.9902859252       20.7378015815
  N         9.9076511888        8.9156934580       17.8989530488
  C        10.3929799098        8.6499099322       15.6296405717
  C        10.7618802758        6.4612687425       14.5498553800
  H        10.5271880757        4.8392245267       15.8050051342
  H         1.2852981220        5.0813514704       29.9788654216
  H         2.9190056231        5.2291484573       30.8612236879
  H         2.0106519559        6.7137792193       30.4981202839
  S         4.5333320611        1.5046706235       34.1637431086
  C         4.8477953001       -1.0288678277       34.7776784954
  H         3.8333863038        2.7643120924       19.3246176042
  H         3.7655468554        2.9159577407       17.6018518479
  C         3.0002796872        1.0089838536       18.4568130547
  H        13.7891546511        3.8431055282       20.1964233089
  H        14.9087718935        2.5100136736       20.3204917765
  C        14.4394281096        3.5049994578       22.1085091442
  S         9.9704449629       10.4337673559       17.3043228737
  N        10.3095423286       10.0447320071       15.7386086461
  C        10.6954485010        7.9564193388       14.4452566319
  H        10.9242435393        5.8742958173       13.6887451162
  C         4.3472040031        0.9175932085       35.8229220208
  N         4.4573718616       -0.4212682314       35.9415640043
  O         4.9242313925       -2.2534435536       34.6093609910
  H         1.9436173885        1.2835445311       18.7291103649
  H         3.3110811710        0.3702599198       19.3483795743
  C         3.2234886134        0.1653069030       17.2320611131
  H        15.1074025232        4.3727556501       21.9626312581
  H        13.5076379584        3.8606010515       22.6536696337
  C        15.0485552053        2.4182567336       22.9601347532
  C        10.9383441937        8.7538085244       13.2794422215
  S         3.8710389879        1.9211164625       37.1882863814
  C         4.4384332799       -1.2040175520       37.1683409462
  H         2.5148853844        0.5913919425       16.5247684351
  H         4.2128628714        0.2696840181       16.7591657886
  C         3.1085920348       -1.3424779755       17.4989491067
  H        15.0690974001        1.5608103903       22.3096847556
  H        14.5080822996        2.0538314531       23.7588404344
  C        16.4585903102        2.5908541331       23.3969790721
  H        10.6609020585        9.7734649359       13.3767444959
  C        11.3137197452        8.3735463517       12.0019657012
  H         3.7858731342       -0.7667048588       37.9674007513
  H         4.1603184203       -2.2636982908       36.9377734668
  C         5.8389276097       -1.3617595489       37.7128319207
  H         3.6459727954       -1.7839451405       18.3022229703
  H         3.5321146604       -1.8378846936       16.6640759573
  C         1.6975439686       -1.7812084452       17.6243004258
  H        16.3523467826        3.5055093772       23.9165816269
  H        16.7711779384        1.8051195579       24.0444064364
  C        17.4979033911        2.6691794812       22.3057541984
  S        11.8030448345        6.8440279737       11.4626461164
  C        11.3869386460        9.4254595084       11.0272445087
  H         5.8762223582       -2.4099641865       38.1423013627
  H         6.5923075741       -1.3386183711       36.9429626853
  H         6.0558335180       -0.5160622615       38.3456922651
  H         1.6038690185       -2.7075225219       18.3225170980
  H         1.3821520602       -2.2215565968       16.6379102604
  H         1.0645153304       -0.9910044205       17.9667752197
  H        18.5251508152        2.5033323773       22.6330814231
  H        17.6025115861        3.6769384208       21.8692281204
  H        17.3083393184        1.9966648565       21.5293421510
  C        12.2213643336        7.5903761171        9.9260084873
  N        12.0303283490        8.9558770020        9.9200164041
  O        11.2259279136       10.5949673934       11.3227464391
  S        12.9201589479        6.7375816107        8.5404055873
  C        12.4471790240        9.8730522383        8.8664588332
  H        12.8163331976       10.7992798489        9.2092018029
  H        13.3341689788        9.4881753496        8.3009123565
  C        11.3329963824        9.9436502041        7.7986305435
  H        11.4000703640       10.8772143952        7.2382265765
  H        11.2215603986        9.1012985883        7.1529226908
  H        10.3664206349        9.9199474017        8.2540468909
  H        -3.9681528483       13.3839163775       16.6736181262
  C        -2.9378974560       13.2443010209       16.3635750446
  H        -2.5198776180       12.2781373877       16.7067396222
  C        -2.0655727594       14.4206876327       16.8674763257
  C        -2.9144811258       13.1089328752       14.8948879652
  C        -2.4011722485       14.8326715734       18.3765659989
  H        -1.0041549757       14.2101167918       16.8747111604
  H        -2.1331054267       15.2673709022       16.1931237218
  H        -1.9656496720       12.6378085775       14.5034329593
  H        -3.8192187603       12.5400956326       14.6395594969
  H        -2.8215207949       14.1193702472       14.4186779129
  C        -2.1954146349       13.6263600745       19.3959503495
  H        -3.4525420995       15.1904912178       18.4299552278
  H        -1.8153709209       15.7228113675       18.5926057511
  C        -2.4543468137       14.0834317160       20.7791639199
  H        -2.7524617448       12.6956554437       19.1125383510
  H        -1.1178345180       13.3689991216       19.4029808679
  C        -1.6777168396       13.3098070474       21.9599349024
  H        -3.4757221183       14.0409889893       21.0079225657
  H        -2.1005192917       15.0564533580       20.7771225825
  C        -0.2579462835       13.9740618847       22.2720182226
  H        -2.1727527729       13.1726430762       22.9397945182
  H        -1.4949929153       12.3399365157       21.5267882939
  C         0.8930557355       13.2100737672       22.9264432995
  H         0.1059196185       14.4538518255       21.3633952455
  H        -0.5323330781       14.8114558813       22.8960339055
  C         1.1557250052       11.8474262962       22.2830503513
  C         0.4712015727       12.5499995763       24.2142514910
  C         2.1189224250       14.1203505979       22.9580983504
  C         0.9847094624       10.7994815002       23.1733341674
  C         1.5733744358       11.4034797219       21.0780898649
  C         0.4978916371       11.1983841484       24.3691735850
  C         0.1534096266       13.3272167287       25.3322363826
  H         2.4477144246       14.3465196486       21.9538445291
  H         1.8647275066       15.0295679000       23.4548325678
  C         3.2312895614       13.3304877213       23.6217697553
  S         1.3999027038        9.2910897390       22.5059092431
  C         1.7506711648       10.0708923850       21.0213649766
  H         1.6869469300       12.0848511313       20.2522111087
  C         0.1578535557       10.6049267823       25.5345064119
  H         0.0863632792       14.3595493356       25.2363893442
  C        -0.1908460378       12.6953159806       26.5028615265
  H         3.4094243028       12.3887499936       23.0914435128
  H         2.9307110521       13.1041941504       24.6279967767
  C         4.5438424756       14.1373204488       23.7400894900
  C         2.2939272442        9.3686217391       19.8262806751
  C        -0.2220484530       11.3315580135       26.6453384860
  H         0.2264566520        9.4962710445       25.5597201456
  C        -0.6258282579       13.1132690532       27.7675593132
  H         5.1540318670       13.5832251653       24.4800518527
  H         4.3813637681       15.1850954547       24.0609889337
  C         5.4107720870       14.1859079673       22.4811700192
  C         2.2490143868        8.0089954432       19.5924540577
  C         2.7667824792       10.2284107939       18.6773894791
  C        -0.5932777151       10.6618505179       27.9063323599
  C        -0.8057165089       12.0025880000       28.5652297579
  S        -1.0567180225       14.5596265881       28.6136430695
  H         6.4261957148       14.3688901757       22.8492191837
  H         5.2253923105       15.1046176719       21.8745083595
  C         5.4260644046       13.0085272221       21.4310841243
  N         1.8855856110        7.0283487258       20.5489566835
  C         2.5388681365        7.5220097018       18.3483100791
  C         3.1218042398        9.7399549596       17.4788079593
  H         2.7995512964       11.3484308534       18.7687542362
  C         0.5818762357        9.9576832777       28.5466356980
  C        -1.8579622700        9.7492297040       27.7302146122
  C        -1.2266678064       12.3350918735       29.8423612621
  C        -1.2323315432       13.6512023716       30.0505766870
  H         5.1404320817       12.0112573683       21.8458286148
  H         4.7873411817       13.2014619107       20.5331656451
  C         6.8802432004       12.9245438275       20.8533191126
  S         1.8354615000        5.6300452167       19.7614389315
  N         2.2324397809        6.1153224423       18.2480485107
  C         2.9983047916        8.2471013662       17.2556290255
  H         3.3225476852       10.5217729553       16.7165421701
  H         1.0008785865        9.2244265187       27.8571918567
  H         0.1993084263        9.3561473151       29.3701908206
  C         1.7071380851       10.9379303885       29.0644269388
  H        -1.6339264335        8.9772232718       26.9278870969
  H        -1.9433779774        9.1041706435       28.5535694376
  C        -3.2101649692       10.4771711208       27.6289341165
  H        -1.2904008985       11.5163111712       30.5225852330
  C        -1.4532495411       14.3079425303       31.3685472804
  H         6.8760420185       12.1694770317       20.0649795636
  H         7.5705725156       12.5824029555       21.6002071885
  C         7.3063197346       14.1614996438       20.0051589355
  C         3.2727548064        7.5817248943       16.0230894106
  H         1.9490253312       11.7188409806       28.3744009675
  H         1.4156221364       11.4884763433       29.9307321982
  C         2.9608346598       10.0480325932       29.4423171720
  H        -3.1092250424       11.3911435756       26.9862962028
  H        -3.3782375959       10.8768205787       28.5980513868
  C        -4.3803887512        9.6877029501       27.0117651171
  C        -1.3985705962       15.7038678235       31.6228076910
  C        -1.5521607983       13.5054689548       32.5844040898
  H         6.8138394502       15.0431758915       20.4062653255
  H         8.3761833675       14.3599207930       20.2342401374
  C         7.0969059113       14.0690050212       18.4753283245
  H         3.3645647542        6.4992718604       16.0558669640
  C         3.5218696538        7.9808505879       14.7453429838
  H         3.4155690192        9.5033774729       28.5504835337
  H         2.5382350910        9.2740717724       30.0040676660
  C         4.0030573242       10.9111474111       30.1611148415
  H        -3.9596275401        8.9289505099       26.3480678710
  H        -4.9155210785        9.1081019106       27.7728354820
  C        -5.3563243305       10.6665667122       26.2715708759
  N        -1.2300173425       16.6381083376       30.6124928284
  C        -1.7699384041       16.2659886657       32.8320615269
  C        -1.8410621541       14.0261833158       33.8450707730
  H        -1.5372232039       12.4289563949       32.5862847339
  H         7.5165291876       14.9853656678       17.9637395939
  H         7.6437877513       13.2158007482       18.0333467202
  H         6.0714347570       13.9945891994       18.2174053278
  S         3.7548679140        9.6514227380       14.1573145935
  C         3.7826323275        6.9744618184       13.6963349076
  H         4.3530113323       11.7134857738       29.5519195708
  H         3.5919118870       11.5073719475       30.9415850190
  C         5.1978557443       10.1080835302       30.5853260693
  H        -4.6796177981       11.1559337894       25.5220983128
  H        -5.7070126013       11.4482304071       26.9227215919
  C        -6.5906410875        9.8955461305       25.8561258067
  S        -1.5157781282       18.1871637274       31.2135581979
  N        -1.8608684412       17.6690583730       32.6936178992
  C        -1.9728994542       15.5188863940       33.9738997974
  H        -2.0886779750       13.3099503565       34.6134245373
  C         4.1641119229        8.9404195862       12.6284196920
  N         4.1952076893        7.5910489094       12.5876481849
  O         3.5748121497        5.7766202155       13.8719985023
  H         5.7104638354       10.6407515893       31.4151094097
  H         5.9062050895       10.1869694388       29.8044391711
  C         4.9822051190        8.6492954101       31.0509871590
  H        -6.3745858232        9.3046724318       24.9092874544
  H        -6.9210315936        9.1315299670       26.5670092071
  C        -7.6596492699       10.9477605552       25.5486345148
  C        -2.3650294224       16.2280595709       35.1168047711
  S         4.7987862524        9.8101008826       11.2089150618
  C         4.3637134917        6.8601280949       11.3597938312
  H         4.3053614825        8.6795808593       31.8785939483
  H         4.5706687192        8.0090865471       30.2866652384
  C         6.2814289865        8.1935776376       31.6674600637
  H        -7.5366430374       11.2941197883       24.5382305772
  H        -7.6124209305       11.9048020393       26.0897584748
  C        -9.0562484351       10.3946546844       25.8748511522
  H        -2.0906738935       17.3011594910       35.1491440218
  C        -3.0073549041       15.7892620055       36.2515084248
  H         5.1560166909        7.2972415128       10.7792856668
  H         4.7185071042        5.8918171546       11.6370368106
  C         3.0952107059        6.7283817117       10.5547027041
  H         6.4647502554        8.8131405880       32.5594490405
  H         7.0584581807        8.4065078839       30.9343845270
  C         6.3857299508        6.7504487728       31.9951724823
  H        -9.7963841494       10.7919539065       25.2270280919
  H        -9.0017456651        9.3835378389       25.6969757614
  C        -9.5406382767       10.5527713536       27.3376673172
  S        -3.7029255963       14.2467749697       36.5525231004
  C        -3.0481785948       16.7003378990       37.3917535441
  H         3.1128514383        5.9507797362        9.8165416607
  H         2.1630604204        6.6066749033       11.1185703447
  H         2.9413769719        7.6955291294        9.9208220394
  H         5.4441898962        6.2300439758       31.9357967405
  H         6.8873380155        6.5128188280       32.9588539729
  H         7.0766486313        6.3476902446       31.1602751109
  H        -9.6006690102       11.5981314364       27.6617899162
  H        -8.9321929344       10.0910558575       28.1210326261
  H       -10.4625807189       10.0312118345       27.3689563213
  C        -3.9404312417       14.7535487033       38.1784039509
  N        -3.6341043908       16.0466079363       38.3965056638
  O        -2.6633483022       17.9146694755       37.3663342270
  S        -4.8201701665       13.9780989280       39.4168073824
  C        -3.7901254123       16.7378035674       39.6769130039
  H        -4.2193360163       17.6924689440       39.2723344882
  H        -4.5775431919       16.3170925022       40.2197417767
  C        -2.4799342554       16.8384759080       40.4191809454
  H        -1.6769705757       17.3298263685       39.8691641289
  H        -2.5666833481       17.3374245778       41.3385495079
  H        -2.1436154266       15.9135793280       40.7752782639
