352
 i =    76200, time =    76200.000, E =        25.2829108136
  H         9.3982623227        5.8745232329       31.4883956095
  C        10.2744890035        6.4180521509       31.9213742693
  H         9.7133146090        7.2915897320       32.3204327914
  C        11.4234158674        6.8698472154       31.0640397390
  C        10.5944858147        5.6118105428       33.1864331248
  C        11.5096026594        6.0708639792       29.7254079355
  H        11.3649101887        7.8642012543       30.7211193231
  H        12.3835506847        6.6813522962       31.5651724151
  H         9.8321371073        5.7159627099       33.9356155261
  H        10.6851048409        4.5352146015       33.2213251282
  H        11.3906176534        6.0726032116       33.7769075963
  C        10.3503992226        6.1560173437       28.7786397627
  H        11.5688197242        5.0359899818       29.9274277562
  H        12.3964897976        6.4686606458       29.2699136318
  C        10.7966947585        5.9652276021       27.3524508353
  H         9.5235208146        5.4882326570       29.0195392009
  H         9.8429023448        7.0782456195       28.8164668245
  C         9.7534206647        5.1710847343       26.5530422861
  H        11.8032378174        5.4843500308       27.3804400541
  H        11.0857918790        6.9167675283       26.8887309662
  C         8.5063099638        5.9357853709       26.0917470885
  H        10.3933452579        4.6830374153       25.7624419977
  H         9.3389892911        4.4066180280       27.1448012021
  C         7.3092546712        5.0499156428       25.5492176207
  H         8.1291362151        6.5650808530       26.9122486443
  H         8.7406387217        6.6052129529       25.2970118724
  C         6.9774724982        3.6955116504       26.2211089696
  C         7.7760230709        4.3336204698       24.3958001585
  C         6.0157784299        5.8452695608       25.1054563011
  C         7.1716840060        2.5902362523       25.3938317685
  C         6.4681815502        3.2830503551       27.4434734896
  C         7.8068965301        2.9936608785       24.2518565126
  C         8.0646777956        5.0240497438       23.2268201546
  H         5.6094258726        5.2871521816       24.2397390713
  H         6.2583879127        6.8122305707       24.7688458242
  C         4.8627402141        5.8828117317       26.1366017458
  S         6.7184814002        1.0440668629       26.0386193272
  C         6.2500043071        1.9249675545       27.5252353036
  H         6.4131701448        4.0196770245       28.1954830357
  C         8.2476068347        2.4292414906       23.0754603121
  H         7.9638033706        6.1108810415       23.3230610892
  C         8.5724134555        4.4683528627       22.0558199214
  H         5.1949450861        5.7129332123       27.2211715113
  H         4.5669848535        6.9286244166       26.2380960263
  C         3.6387481416        5.0895727316       25.7422583927
  C         5.7979425124        1.2716391352       28.8093296948
  C         8.6334907041        3.1318421327       21.9718428638
  H         8.0694130611        1.4033288278       23.0720388912
  C         8.8407464278        4.9351757533       20.8371289909
  H         3.6991781389        4.0189300363       25.7138020972
  H         3.3687488494        5.3376500961       24.6757607631
  C         2.5273813667        5.4359193519       26.7342641730
  C         5.8504910305       -0.0732243930       29.0817655863
  C         5.3867847362        2.1356760226       29.9328182405
  C         8.8728217318        2.4291592496       20.6964156021
  C         9.1149541310        3.8392671929       19.9866540263
  S         9.2995368943        6.4259397352       20.1447242287
  H         1.5834665681        5.1645999812       26.3599902255
  H         2.4906909709        6.4977032464       26.9266767496
  C         2.6111735985        4.6737200277       28.0460320908
  N         6.3256033126       -1.0775095576       28.2043655352
  C         5.5828220096       -0.6189189935       30.3270005240
  C         5.0528601855        1.6075717212       31.1631896390
  H         5.3933895768        3.1980790017       29.8311603411
  C         7.6341375958        1.7172302285       20.0963370134
  C        10.2210077090        1.5579826566       20.7473500632
  C         9.3554597131        4.2817182088       18.6728061460
  C         9.6403395643        5.6327236539       18.5977271823
  H         2.0116986906        3.7640883759       28.0431298516
  H         3.5758975782        4.2729962510       28.2296928543
  C         2.2361323305        5.5689538872       29.2095445561
  S         6.2555657845       -2.5237807512       28.9386819500
  N         5.7732849984       -2.0440717530       30.4371027559
  C         5.0973370762        0.1374002587       31.3875180530
  H         4.8307065768        2.2623518547       31.9547499356
  H         7.2948109373        0.9067878011       20.7839613905
  H         7.9759765287        1.3484170957       19.1684254176
  C         6.4050098867        2.5499821163       19.8886474307
  H        10.4042122792        0.9654071077       19.8175666674
  H        10.1462065989        0.8173917293       21.5316261936
  C        11.4667164359        2.4214589261       20.9322688260
  H         9.5359593859        3.4935779207       17.8760401235
  C        10.0540828265        6.2994312322       17.2818887153
  H         1.4947353660        6.2843036021       28.9650853609
  H         3.0832596954        6.1770370383       29.5390737020
  C         1.5848124829        4.8281481261       30.4203120524
  C         5.0874085888       -0.4571798539       32.6907643633
  H         6.4415687265        3.4280180664       19.1816819620
  H         6.1050183831        2.9638339833       20.8437168611
  C         5.2988776426        1.6965420171       19.2747543223
  H        11.3430755924        3.2224043544       21.6493256294
  H        11.6511924850        2.7563521459       19.9807394854
  C        12.7064474701        1.6820631098       21.4231570741
  C         9.9322231203        7.6801464562       17.0508328324
  C        10.4396001536        5.4394998347       16.1668238134
  H         0.7858841694        5.4214843340       30.7612095499
  H         1.0893347483        4.0003502088       30.0370861733
  C         2.6505983394        4.4608335175       31.3846100562
  H         5.1997008287       -1.5781742084       32.7174186450
  C         4.8314593704        0.0180310326       33.9457256363
  H         4.4275906040        2.3534464098       19.4888678505
  H         5.1719726794        0.7714376755       19.8877608996
  C         5.3462020745        1.4046737300       17.7630193074
  H        12.4271839659        1.1759501718       22.3570636018
  H        13.1024427780        0.8821790079       20.8142378018
  C        13.8721199125        2.6605061170       21.7532127497
  N         9.7378023996        8.6557710665       18.0150077594
  C        10.2470861334        8.2695961910       15.8235075840
  C        10.6940411216        6.0681972888       14.8824186175
  H        10.5116409978        4.3619834757       16.1484410616
  H         3.2048433642        5.3656390697       31.5008761087
  H         2.3150992499        4.0877541562       32.4065493672
  H         3.3506236996        3.7980724296       30.9411200799
  S         4.2765393159        1.6278484638       34.4050905316
  C         4.7669738184       -0.9475759014       35.0628228761
  H         6.2214512500        2.0090785828       17.2786361083
  H         5.6877038626        0.3507387536       17.6379933419
  C         4.0916154660        1.4312977216       16.8966693190
  H        13.5766167559        3.4058730602       22.4871969661
  H        14.0894971839        3.1813797703       20.8332818023
  C        15.0913416554        1.9130545391       22.2594052983
  S        10.1019787746       10.0760883962       17.4403284650
  N        10.3588874864        9.6909366506       15.8847051330
  C        10.6156047881        7.5004166585       14.6846730412
  H        11.0360231860        5.4506710731       14.1047321977
  C         4.0787271649        1.0002529907       35.9881204720
  N         4.2293331257       -0.3392013530       36.1267278273
  O         5.0485449481       -2.1416207058       34.9559975853
  H         4.2448947421        0.8459342092       16.0068513069
  H         3.8892579368        2.4391850659       16.6040644955
  C         2.8841619488        0.9260493157       17.7012435905
  H        14.7431762999        1.0222651144       22.8171134078
  H        15.6726718495        1.5630189038       21.4303888122
  C        15.9974598330        2.6779048674       23.1536777691
  C        10.9293892556        8.1808257121       13.5015580893
  S         3.5628957195        1.9161341599       37.3622754039
  C         4.1345418057       -1.0330107051       37.3961651664
  H         3.1628102043        0.7075726722       18.7264099013
  H         1.9907405882        1.6503689696       17.7864033924
  C         2.3559767143       -0.3752368927       17.1668703238
  H        15.5042751231        3.4103112024       23.7675136770
  H        16.5491022502        3.3584974171       22.4466320719
  C        17.0174367887        1.8185880640       23.8277595269
  H        10.8451748659        9.2467518208       13.5547303763
  C        11.5285894859        7.8855723626       12.3087676396
  H         3.5456281252       -0.5729549417       38.2252240121
  H         3.8561784654       -2.1029344459       37.3151402089
  C         5.4428533145       -1.0695182821       38.1010252492
  H         2.1786191603       -0.3248663508       16.1100142899
  H         1.3234558700       -0.3772021697       17.4459294612
  C         3.0954270097       -1.6312545411       17.6157471644
  H        17.3272215544        2.4393841773       24.6575405535
  H        16.4363957419        0.9055470510       24.2094904855
  C        18.1574384965        1.3106194942       22.9953520248
  S        12.2793674512        6.4547928322       11.8801282980
  C        11.6540833112        8.9377873130       11.3245446383
  H         5.6569267747       -2.0566115609       38.4283806339
  H         6.2339815494       -0.8131701569       37.4301401581
  H         5.4542432243       -0.4198287130       39.0116581431
  H         4.1390644083       -1.4994193403       17.3557038971
  H         2.7207301715       -2.4335164740       16.9767830950
  H         2.9679084622       -1.8227595948       18.7282251859
  H        19.0043594424        1.0671964114       23.6965987829
  H        18.4968500033        2.0321227098       22.3271699562
  H        17.7549713447        0.4691022119       22.4293199826
  C        12.5224904845        7.1428201283       10.3133322301
  N        12.2834241264        8.4632235710       10.2569943991
  O        10.9677251820        9.9407969130       11.3937538874
  S        12.9886475488        6.2880554683        8.8657876984
  C        12.3236481531        9.1988815863        8.9822736411
  H        12.6205091041       10.2066157757        9.2420497450
  H        13.2110103847        8.8194801246        8.3576305961
  C        10.9858285755        8.9835364987        8.2510656339
  H        10.7384875645        9.8889052933        7.8027335598
  H        11.2265679126        8.2311665108        7.4840193324
  H        10.1251263233        8.7683262623        8.8960803335
  H        -2.8885384502       14.8332998613       16.3165010883
  C        -3.0496025834       13.7848373752       16.2872553253
  H        -4.1157533553       13.6055106284       16.2715383837
  C        -2.2899833482       13.2679187874       17.4857030483
  C        -2.6281297848       13.2081184541       14.9451404386
  C        -2.9593317931       13.5827534251       18.8428223827
  H        -2.0901126751       12.2235967364       17.3047900991
  H        -1.3417604265       13.8184118860       17.5711021882
  H        -2.6595681226       12.1860818886       14.9752889186
  H        -3.2523002798       13.5163413778       14.1571619799
  H        -1.6111405181       13.5562127523       14.6950619298
  C        -2.0003901886       13.2496318567       19.9774006365
  H        -3.8876197763       12.9967468861       18.9954911033
  H        -3.2599376657       14.6542723446       18.9627474170
  C        -2.6167411306       13.2054371441       21.3613350386
  H        -1.4743547933       12.3409188529       19.7311766700
  H        -1.2089534922       14.0015860733       19.9309245191
  C        -1.7148920609       12.6334292423       22.4384682275
  H        -3.5043808616       12.4789156339       21.2907738970
  H        -3.1032420965       14.1127608354       21.6593928427
  C        -0.4952007677       13.5597949283       22.7986313318
  H        -2.2524404672       12.1975859424       23.2756675883
  H        -1.1445300507       11.7901782631       22.1154006383
  C         0.7418315661       12.8349588295       23.4561962780
  H        -0.1165387293       13.9717547824       21.8600956386
  H        -0.7400563615       14.3515137324       23.4695306653
  C         1.0794489991       11.4879534939       22.7376282865
  C         0.3538666223       12.0084260444       24.6889192652
  C         2.0230958030       13.7701192123       23.5097056883
  C         1.0211522593       10.3317150359       23.5255354315
  C         1.6182980580       11.2533236692       21.4821721311
  C         0.5752768005       10.6441014082       24.7631879009
  C        -0.0368760838       12.6219529766       25.8319592205
  H         2.1583768852       14.1319615074       22.4855455379
  H         1.8019415854       14.6850491597       24.0191066701
  C         3.3321103723       13.1297936348       24.0648502838
  S         1.5383182404        8.9356446097       22.7215790205
  C         1.8997600916        9.9260970976       21.3093625759
  H         1.7448952932       12.0153065729       20.7887284877
  C         0.3262398687        9.9395929860       25.8980163217
  H        -0.1126173040       13.6891966290       25.8520576508
  C        -0.2631243043       11.9221209888       26.9934970224
  H         3.6128331386       12.3216483724       23.3721008172
  H         3.0491124887       12.6333854781       25.0490704187
  C         4.5166361070       14.1697521040       24.3132629038
  C         2.5430180260        9.3610276127       20.1205326546
  C        -0.1805018286       10.5435527862       27.0617347121
  H         0.4366713137        8.8915671555       25.7986198914
  C        -0.6265856928       12.2999771072       28.2857143056
  H         5.2344861523       13.6125185402       24.9719523918
  H         4.2411692483       15.0321745320       24.9864260842
  C         5.3028144528       14.5748513990       23.0310381986
  C         2.6524296938        7.9553777137       19.8935720924
  C         2.8963546944       10.2545771306       18.9461884875
  C        -0.4751410816        9.9003763566       28.3544388708
  C        -0.7807770065       11.1853931759       29.0483719228
  S        -0.9266025846       13.7977287411       29.0394305458
  H         5.8563527484       15.5400030493       23.2725669104
  H         4.6047784973       14.8193833205       22.1888716671
  C         6.2783768238       13.4181647333       22.6202339266
  N         2.3835753173        6.8952277578       20.7634593136
  C         3.0533414442        7.4139665820       18.6727527400
  C         3.3167173628        9.6391407255       17.7844330467
  H         2.9352928885       11.3695510097       18.9460489765
  C         0.7218660158        9.2224063556       29.0552601635
  C        -1.7542482597        8.9645110908       28.2453367552
  C        -1.1374573161       11.6474972747       30.3277924047
  C        -1.2785893022       12.9788209697       30.4969204688
  H         6.8503722207       13.1166015522       23.4850564152
  H         5.7819008714       12.5201972210       22.3447596774
  C         7.0493078190       13.7183752303       21.3513615103
  S         2.5400174238        5.4593136341       19.9955075189
  N         3.1747736060        6.0207692580       18.6178930818
  C         3.3738789686        8.1944222126       17.5856378747
  H         3.8356179536       10.2317999723       17.0091313042
  H         0.9735037959        8.4385392586       28.3186817127
  H         0.4467128998        8.7009913435       29.9926283572
  C         2.0104133048       10.0654722457       29.3791541692
  H        -1.5861843015        8.2412355125       27.4944452747
  H        -2.0884137156        8.4163186339       29.1784997517
  C        -2.9793559629        9.8109573978       27.7629820979
  H        -1.4026622503       10.8514873768       31.0489017649
  C        -1.5832118749       13.7245875309       31.7756315015
  H         7.9173176413       13.1176263928       21.3585333091
  H         7.3740992620       14.8047452432       21.4191456105
  C         6.2762001117       13.4525543692       20.0922687509
  C         3.6574975247        7.4906555265       16.3324555164
  H         2.3984495938       10.4370414352       28.4482368787
  H         1.6935047554       10.8784604654       30.0114463464
  C         2.9673272371        9.1656931092       30.1299441775
  H        -2.7509290958       10.4478217770       26.9705016642
  H        -3.3239784106       10.4769765692       28.4582495160
  C        -4.1863896876        8.9923007036       27.4146221064
  C        -1.6489034968       15.1506343135       31.8673312644
  C        -1.8107636559       12.9402399944       33.0312425976
  H         5.7697353526       12.5394947992       20.1580551918
  H         5.4797116554       14.1387062610       19.9113377151
  C         7.0569565849       13.4411620579       18.7303830954
  H         3.7803671578        6.4589791341       16.4229036943
  C         3.8499302420        7.8937792934       15.0490486893
  H         3.2495943777        8.3176359035       29.4923459228
  H         2.5163877346        8.6605837903       30.9480437464
  C         4.2480339445        9.8387235835       30.5760658276
  H        -4.0418868858        8.0721590546       26.7549269164
  H        -4.4602058893        8.5064147198       28.3498412460
  C        -5.2813461996        9.9655335431       26.9999697013
  N        -1.3400765245       16.0826924949       30.8286142272
  C        -2.0228739742       15.7710113421       33.0469040412
  C        -2.0778881529       13.6359580474       34.1745483451
  H        -1.6835089203       11.8672127159       33.0183335769
  H         7.8835787211       12.7876785550       18.5503034019
  H         6.3597283800       13.2251074321       17.9262144285
  H         7.5630851122       14.3719988255       18.5570264504
  S         4.0337755727        9.5293604604       14.5073716170
  C         4.0195402715        6.8697658919       13.9988283316
  H         4.8441597847       10.1501756949       29.7753535183
  H         4.0784202285       10.7810330414       31.0103444235
  C         5.0744945109        8.8384329641       31.3214916214
  H        -4.9305550675       10.7673037957       26.3431245461
  H        -5.5889132853       10.5425487758       27.8460529128
  C        -6.4959005656        9.3679025371       26.2347509911
  S        -1.6265788055       17.5933612843       31.3972373882
  N        -2.1101512278       17.1305779030       32.8715627474
  C        -2.2483034893       15.1003734139       34.2380982996
  H        -2.0521299169       13.0080880301       35.0593010600
  C         4.2349454209        8.7667319384       12.8741684750
  N         4.2660078429        7.4099822083       12.8280847976
  O         3.8474550494        5.6357807410       14.0911786176
  H         4.5088076913        8.0595043558       31.8434303246
  H         5.5553741631        9.5118137013       32.1055688202
  C         6.2026334104        8.3727978676       30.4047072450
  H        -6.2864666391        8.5624856841       25.5315374894
  H        -7.1325389208        8.9139111681       26.9684958224
  C        -7.1650543086       10.5118144716       25.5833910120
  C        -2.5024101489       15.8288380876       35.4529527751
  S         4.6718621460        9.6435439809       11.4429582344
  C         4.1187013476        6.5722334391       11.6513974823
  H         5.8412129673        8.1796938136       29.4491051557
  H         6.8733321746        9.2126271037       30.1519938539
  C         7.0632283613        7.1475287089       30.9211246777
  H        -6.6273248116       10.8028968636       24.6928294189
  H        -7.0994750345       11.4810871493       26.2018645939
  C        -8.7003244009       10.2207345397       25.2845825102
  H        -2.2858443660       16.8910563402       35.4059608274
  C        -3.0766097740       15.3614231111       36.6501858792
  H         4.4577730999        7.0830385649       10.7970943052
  H         4.7032654110        5.6275788845       11.7536873130
  C         2.6569792722        6.4009142617       11.4033280032
  H         7.5464263542        7.4720011454       31.8772410416
  H         7.7869618270        6.9379558305       30.1692464721
  C         6.3723367687        5.8288497740       31.2099643349
  H        -8.9848026408       10.9026542261       24.5165186674
  H        -8.9210352872        9.2846911266       24.8213446902
  C        -9.7117755991       10.4255584491       26.4019887876
  S        -3.6415814933       13.7221111893       37.0637106009
  C        -3.1724151340       16.3121309571       37.7446589529
  H         2.4404883370        5.3842772209       11.2090072922
  H         2.0078193314        6.6427250550       12.2579073018
  H         2.4236015712        6.9526715856       10.5381978218
  H         6.9346860347        4.8869876771       30.8834900863
  H         5.3857947028        5.8236122170       30.7410121227
  H         6.1296682504        5.7648182535       32.2290115683
  H       -10.5971422022       10.0185207025       25.9530574181
  H        -9.7734352131       11.4621135881       26.6877555222
  H        -9.4150895473        9.8121166022       27.2411546571
  C        -3.7755402638       14.3395398816       38.7186987720
  N        -3.6034025679       15.6848611610       38.8496537736
  O        -2.8749784841       17.5227720427       37.6374257827
  S        -4.4756863145       13.4757626915       40.1273939563
  C        -3.9201339225       16.4147200298       40.1173988081
  H        -4.5437606708       17.2015128737       39.8370255352
  H        -4.6232675508       15.9841250157       40.7239955967
  C        -2.7188881217       16.8949635423       40.8699227600
  H        -1.8476445628       16.8632539254       40.1951350666
  H        -2.8999652335       17.9159119512       41.2797169878
  H        -2.5476648040       16.1918246992       41.6361186666
