352
 i =    89400, time =    89400.000, E =        25.0299745311
  H         9.6122305947        6.9395129588       31.6614300824
  C        10.6795648108        6.8183019491       31.7054050281
  H        11.0569294725        7.7927946358       31.9873997902
  C        11.3401871898        6.1364348307       30.5399464085
  C        10.7628668777        5.9351928222       33.0017547882
  C        10.4854598970        5.0136740400       29.9297956128
  H        11.4516940507        6.8265262595       29.7082395259
  H        12.2983785229        5.6966061786       30.8386968465
  H        11.1802953967        4.9535168398       32.7811612795
  H        11.4413437495        6.3428005780       33.7204171597
  H         9.8857439117        5.7477935502       33.5289798382
  C         9.8355734339        5.4944169685       28.6313462222
  H         9.7414108480        4.5578208324       30.6087243140
  H        11.1278972705        4.1707497194       29.5966330701
  C        10.5946510470        5.3772859223       27.3563077675
  H         8.9245120748        4.9592332975       28.6311008432
  H         9.5339116485        6.5294246666       28.7680711886
  C         9.8124185230        4.9083821290       26.2245010025
  H        11.3957028717        4.7407902284       27.4680081391
  H        10.8775931406        6.3613549061       27.0934304918
  C         8.6093038179        5.7684141712       25.8780282879
  H        10.3625708848        4.6275220933       25.3311489306
  H         9.5348519669        3.9699610646       26.6617306331
  C         7.4086367777        4.9793122699       25.2730826649
  H         8.1921289595        6.4242163765       26.6998879797
  H         8.9489173988        6.4857814214       25.1097310101
  C         6.9495172718        3.6636357462       25.9833494345
  C         7.7756842276        4.1989881072       24.0919330269
  C         6.1838470123        5.8159827013       24.8352442620
  C         7.0491476706        2.5813636482       25.1737005559
  C         6.5282134441        3.3342183030       27.3280486037
  C         7.5993633544        2.8741815708       23.9957479862
  C         8.0653867553        4.8466906786       22.8994892731
  H         5.6216477240        5.3062542911       24.1704398702
  H         6.4783866026        6.7762778686       24.3772185896
  C         5.2232625083        6.2185225074       25.9828433658
  S         6.4783566229        1.1398652130       25.8231601322
  C         6.1581095766        1.9970945301       27.3794120621
  H         6.6936744044        4.0020136482       28.1684844843
  C         7.9798014200        2.2164916208       22.8716679300
  H         8.0984423623        5.9159400826       22.9572776288
  C         8.4539166971        4.1742168768       21.7574750191
  H         5.7172862388        6.2657490833       26.9396076280
  H         4.9626515474        7.2610079028       25.7822616536
  C         3.9605932611        5.5019783404       25.9957105062
  C         5.6825872312        1.3347879035       28.6821067218
  C         8.3854821564        2.8384772028       21.7028795732
  H         8.0119488946        1.1554907695       22.7772752704
  C         8.8154650609        4.5601276138       20.4948365552
  H         4.2700835098        4.4325409368       26.0385696944
  H         3.4028742675        5.5434326577       25.0711222042
  C         3.1432923575        5.9087450909       27.2214877022
  C         5.7859975030       -0.0545050854       28.9820784717
  C         5.3326242279        2.2297592266       29.8288726550
  C         8.7546065878        2.1307937027       20.4729367854
  C         8.9834268815        3.4606708140       19.6846373321
  S         9.0606231496        6.0498331340       19.6522510132
  H         2.5469967324        6.7225481828       26.9155211555
  H         3.6633544972        6.3477012898       28.0325624036
  C         2.3309649251        4.6854445721       27.7471866522
  N         6.0966670054       -1.1424252721       28.1480173643
  C         5.5008308015       -0.5499803711       30.2549976547
  C         5.0750541431        1.7164057449       31.0884770229
  H         5.2051491797        3.2957907976       29.7007836417
  C         7.5799654989        1.2653628325       19.8541139504
  C        10.0353270174        1.4060528592       20.7539323256
  C         9.2455380662        3.8132794356       18.3472198460
  C         9.2074433120        5.1837780921       18.1656348901
  H         1.9243395246        4.1242697508       26.9028367602
  H         3.0908628663        4.0323040472       28.1989010790
  C         1.2380806407        4.9636807065       28.7458370494
  S         6.1028151725       -2.5318513385       28.9131673141
  N         5.7837951679       -1.8699402234       30.3760091485
  C         5.0408218771        0.2385700680       31.3266849240
  H         4.8542457306        2.4151232108       31.8836666749
  H         7.4291981676        0.5754747466       20.6787402951
  H         7.8045953780        0.8674239413       18.8509086370
  C         6.2444508982        2.0616566913       19.5607157129
  H        10.2148188740        0.8253635246       19.8862899484
  H         9.9875320489        0.7995992908       21.6394225560
  C        11.2470981280        2.2321492548       20.9973514208
  H         9.0200391742        3.1087348209       17.5826004465
  C         9.5240786550        5.9771644328       16.9482822219
  H         0.6621390079        4.0541628825       28.9874246675
  H         0.5132748730        5.6973631574       28.3131027315
  C         1.6777160338        5.5671497766       30.1214197162
  C         5.0847995481       -0.4348740487       32.5843359106
  H         6.4991914378        2.9067865606       18.9273165571
  H         5.8654434560        2.4990944408       20.4681994270
  C         5.2139619872        1.2125402135       18.8135900803
  H        11.0697385943        2.9807175425       21.7485309114
  H        11.6403412260        2.7074056968       20.0689626440
  C        12.4117168437        1.4139203316       21.6516637729
  C         9.6731728280        7.4233142925       16.7594198036
  C         9.8405806058        5.1620186607       15.7029331033
  H         1.6427357538        6.6671855068       30.0979926980
  H         0.9263498156        5.4233702518       30.9111934319
  C         2.9449106061        4.9277775999       30.6533028527
  H         5.2077100227       -1.4772787851       32.5248179275
  C         4.8033567935       -0.0194930103       33.9108439253
  H         4.4882571004        0.8595880950       19.5381561064
  H         5.6747738752        0.3814236737       18.2953413394
  C         4.2873915113        2.0508683356       17.8724424531
  H        12.6497808438        2.0525231546       22.5514191456
  H        12.1285874268        0.3974397149       21.9023261659
  C        13.6852413593        1.3410252852       20.8123391629
  N         9.4066133911        8.3301033275       17.7399277994
  C        10.0787009342        7.9892456206       15.5765202251
  C        10.2227501859        5.7295817103       14.5008978297
  H         9.6903093899        4.1477285602       15.8422813644
  H         3.0959079033        5.3802010886       31.6589654278
  H         2.9316803821        3.8922002312       30.8473182102
  H         3.7396541876        5.1678029436       29.9584256157
  S         4.3264533251        1.5577170197       34.4222169942
  C         4.7623497146       -1.0821291240       34.9806334526
  H         3.9788894940        3.0478555312       18.1390964038
  H         4.8412994836        2.3505455060       16.9382768999
  C         2.9901977860        1.3051281500       17.4862886852
  H        13.9693200722        2.2911711969       20.3850063997
  H        13.5947931998        0.5559235281       20.1229975451
  C        14.8810441817        0.9570257790       21.7381302407
  S         9.6123304318        9.8196546454       17.1327230527
  N        10.2570212578        9.3255408062       15.7025650898
  C        10.4131670662        7.2766833679       14.4310256592
  H        10.5061476776        5.1167211604       13.6671684017
  C         4.0105818515        0.8332277538       35.9934654358
  N         4.1893870633       -0.5125030986       36.0994390739
  O         5.0620494807       -2.2692015231       34.7892400124
  H         2.4590838179        2.0500830622       16.9514768560
  H         2.4109936676        0.9477765146       18.3754084098
  C         3.2919506710        0.0769539250       16.5320685893
  H        14.4840355938        0.2130328245       22.4160375488
  H        15.6691047979        0.6610108121       21.0659243376
  C        15.3979358806        2.0333687604       22.6886023640
  C        10.8670516863        8.0068399774       13.3007685526
  S         3.5985328112        1.7817333580       37.4481590272
  C         4.0557787862       -1.2082373529       37.4023272959
  H         2.5124271748        0.0939789914       15.7684829082
  H         4.2196869863        0.1825611169       16.0043375677
  C         3.1887909117       -1.3333330670       17.2572139052
  H        14.7235654152        2.0903676860       23.5525440442
  H        15.3410263027        3.0342445386       22.2306966287
  C        16.8952005671        1.8590858414       23.0194024051
  H        10.5930373288        9.0623476654       13.3751753669
  C        11.3149197389        7.6672685758       12.0478121166
  H         3.2267192840       -0.8501672392       38.0676214291
  H         3.7953104813       -2.1476612197       36.9951077639
  C         5.4023755540       -1.0860686527       38.0923460777
  H         3.6556225826       -1.2360139700       18.2230695877
  H         3.8160957721       -2.0876115373       16.7829093102
  C         1.7854182900       -1.8768588257       17.4729106058
  H        17.1349906395        2.6309309712       23.7324069470
  H        17.1350607663        0.8186776420       23.2928693460
  C        17.7766281378        2.2646919019       21.7987802496
  S        11.6519604263        6.1071242609       11.4747156635
  C        11.5079719700        8.7477928472       11.0272299925
  H         5.3987011971       -1.6169547092       39.0689030135
  H         6.3229972009       -1.4842583654       37.6502971292
  H         5.5473689102        0.0140318049       38.1281341329
  H         1.3087800499       -2.1472010848       16.5223469980
  H         1.0688581431       -1.0865864292       17.7627028376
  H         1.5841293027       -2.6010264021       18.2740919569
  H        17.3804822950        2.9994067972       21.1049552132
  H        18.1311201622        1.4178901883       21.3427858014
  H        18.7154933520        2.7453325150       22.1621966370
  C        12.0705505826        6.8807454429        9.9381635525
  N        12.0092894314        8.2285524339        9.9637473642
  O        11.3481078484        9.9419747978       11.1390998543
  S        12.6306684981        5.9831726510        8.5149276249
  C        12.3037904171        8.9885126865        8.7857135002
  H        12.5746129426        9.9869064375        8.9246159304
  H        13.0144324906        8.5201114457        8.2389295011
  C        11.0016688949        9.0043920391        7.8476882230
  H        10.9113361317       10.0245602774        7.5925578547
  H        11.1139456921        8.4149721340        6.9335941395
  H        10.1384503377        8.8007998307        8.3971876086
  H        -4.2716414542       14.8890413433       16.5626293864
  C        -3.5759599404       14.0176389692       16.5146098230
  H        -4.1038923251       13.0369857198       16.5459942162
  C        -2.6051351677       14.0418489299       17.6919807399
  C        -3.0265288537       13.9375581418       15.0958813789
  C        -3.0913098842       13.5648419068       19.0543947376
  H        -1.8284215224       13.3057171286       17.4656213242
  H        -2.0083443140       14.9417089588       17.8101341187
  H        -2.8833547849       12.9019458223       14.9139296321
  H        -3.7413446351       14.4228322995       14.3599345394
  H        -2.0093715964       14.3752598485       15.1088727996
  C        -2.0338860623       14.0383493776       20.0141040399
  H        -3.2006278826       12.4809999928       19.1449088600
  H        -3.9566592814       14.1121911976       19.2340986019
  C        -2.2282166971       13.8464715281       21.4618489715
  H        -1.0540958811       13.6109891284       19.6508580453
  H        -1.9030172748       15.0959113324       19.8399240885
  C        -1.2322208490       12.9783920332       22.1161819234
  H        -3.1895427333       13.2947846151       21.4853251841
  H        -2.5340971140       14.8004082672       21.9472219860
  C        -0.0298460235       13.7312970717       22.4526569245
  H        -1.7254940653       12.5667496361       22.9718412039
  H        -0.9403152100       12.2067576510       21.4305195718
  C         1.1330516402       12.9686851474       23.1730416534
  H         0.4647048576       14.1121601199       21.5109397373
  H        -0.3836293112       14.6814473972       22.9439733702
  C         1.4109335255       11.6612449199       22.4127609135
  C         0.7045683509       12.0767376132       24.3163585263
  C         2.4263111423       13.8390322688       23.4816452375
  C         1.2314669133       10.4597176239       23.1217805725
  C         1.9770317818       11.3751511221       21.1959520033
  C         0.7191576075       10.6962952347       24.3587543707
  C         0.2350856230       12.6662115570       25.4777282859
  H         2.5630499145       14.4691879413       22.5930481966
  H         2.2384957283       14.5609376375       24.2693511276
  C         3.7244809789       13.1276995823       23.9109221852
  S         1.5865262676        9.0506819682       22.2732146887
  C         2.1536707934       10.0281373123       20.9191540124
  H         2.1488348915       12.2146054635       20.5084463549
  C         0.2904180947        9.9876150347       25.4904062273
  H         0.3832349278       13.6967169109       25.3723091069
  C        -0.2554536135       12.0470539554       26.5665610741
  H         3.8137411829       12.1149562077       23.4805160177
  H         3.6505512586       13.0431041481       24.9714808658
  C         4.9917305340       13.9888238117       23.7639483269
  C         2.5401012043        9.3768867702       19.6004699373
  C        -0.1593818833       10.6944107040       26.6324219770
  H         0.4123303216        8.9277523095       25.3852276137
  C        -0.7006507534       12.3187383931       27.7960424569
  H         5.8071196178       13.6771616176       24.4213009421
  H         4.6963649975       14.9620174993       24.0610058083
  C         5.5320780636       14.1163735172       22.3419787614
  C         2.3122210545        8.0414918670       19.2370338577
  C         3.0702303047       10.1799542444       18.5138702607
  C        -0.5132992081        9.9057821265       27.8767590617
  C        -0.7163788996       11.2279608486       28.6305939158
  S        -1.0777282384       13.8080053553       28.5757417488
  H         5.9857114247       15.0747266959       22.2333148327
  H         4.6486237717       14.0942541035       21.7477362684
  C         6.3913059935       12.9470252390       21.8153682713
  N         1.9327528902        7.0465355814       20.1608056197
  C         2.5964925509        7.5370075132       17.9830743886
  C         3.2528922327        9.6840324307       17.1856224734
  H         3.2398469430       11.2749461831       18.7864638090
  C         0.5869283344        9.0619575741       28.5542841053
  C        -1.7857126961        9.0041506677       27.6009496884
  C        -1.1227452981       11.6080818287       29.9084796592
  C        -1.3234454971       13.0007565100       30.0270373890
  H         7.1980153384       12.6706139835       22.5005704847
  H         5.7301539715       12.0626638164       21.8239745470
  C         6.9621602106       13.0859349731       20.4337117377
  S         1.8769703997        5.6891258204       19.3937596501
  N         2.4063904336        6.1791570421       17.9668199455
  C         2.8776711458        8.2968327303       16.8215226298
  H         3.6850320422       10.3804765046       16.4925753400
  H         0.8789273628        8.1799326554       27.9640714347
  H         0.1742390030        8.7050268188       29.5053236269
  C         1.6736152910       10.0605474470       28.8687835296
  H        -1.7492327628        8.2351514666       26.7730356164
  H        -1.9135470002        8.3400556081       28.4891671319
  C        -3.0511697072        9.8535188175       27.4651676449
  H        -1.1970834366       10.8224026310       30.6686000820
  C        -1.6037797310       13.7374261594       31.3483749708
  H         7.3921985610       12.0845514335       20.2821477095
  H         7.8296786450       13.7626880306       20.3857437355
  C         5.9697415000       13.3931221504       19.3424116396
  C         3.0389546453        7.5864006344       15.5637915711
  H         1.9036972193       10.7502713966       28.1017348560
  H         1.4458744889       10.5715421328       29.7758632372
  C         2.9413233771        9.4653017335       29.3684667418
  H        -2.8670829933       10.6084911253       26.7204730275
  H        -3.2160754305       10.4460167933       28.3367718036
  C        -4.3644291812        9.0198846167       27.0485742304
  C        -1.6393455820       15.1511829947       31.5215807046
  C        -1.8918282841       12.9750207373       32.5793778837
  H         4.9945156658       12.9071862727       19.5806992769
  H         5.7506127424       14.4571651935       19.3991007776
  C         6.3266581104       12.9520746958       17.9626707299
  H         2.5804556627        6.6519241148       15.5771124081
  C         3.4508055849        7.9606692895       14.3479395872
  H         3.2994095102        8.8868878979       28.6442089245
  H         2.7612388588        8.9867556412       30.3577275597
  C         3.9758309840       10.5340228382       29.7248896127
  H        -4.0577951637        8.4432713473       26.2149464272
  H        -4.7038305376        8.4001518793       27.8490280255
  C        -5.4131751442       10.0056989280       26.7709067700
  N        -1.5028901921       16.0954266127       30.4167342367
  C        -2.0259325127       15.7457300410       32.7112611265
  C        -2.1973851503       13.5744005109       33.7974891054
  H        -1.9020624980       11.9173281041       32.4265047971
  H         5.6877579952       11.9786803263       17.9334998927
  H         6.0319384008       13.7475345666       17.2282604079
  H         7.3546859454       12.6780273028       17.9485711323
  S         3.9059592041        9.5735761811       13.8938231453
  C         3.3187439943        6.9902710451       13.2479814066
  H         4.2791215977       10.9193156400       28.7709521611
  H         3.4441678503       11.2846981446       30.2789752203
  C         5.1556168491       10.0801140465       30.6732574600
  H        -5.0761326147       10.9686027749       26.9376513173
  H        -6.0925335046        9.9533247407       27.5402519405
  C        -5.9673681753       10.1914646224       25.3529544364
  S        -1.5334829264       17.5451568294       31.1224472047
  N        -2.0253056975       17.1386361438       32.6459627890
  C        -2.3170949563       15.0261537714       33.9084625428
  H        -2.4159465529       12.9024269756       34.6694862998
  C         4.1061537602        8.8091827128       12.3242305077
  N         3.8063654859        7.5243069177       12.1729649543
  O         2.9699481519        5.8434905781       13.4349805276
  H         4.6829395539        9.5261554542       31.4620701450
  H         5.6776349083       10.9676271999       31.0875081990
  C         6.1925738719        9.1566950339       30.0083517262
  H        -5.3755647962       10.8539147706       24.7564650572
  H        -5.9381337552        9.2453021750       24.7989078285
  C        -7.4194834807       10.7082327902       25.3167218824
  C        -2.5558588275       15.7846117283       35.1056284845
  S         4.7739963523        9.7192693057       10.9713666610
  C         3.7250607066        6.8515943656       10.8422029412
  H         6.0225026377        9.3996935540       28.9720424440
  H         7.1927058769        9.3535858771       30.3697162671
  C         5.8866011443        7.6430983165       30.2019612407
  H        -7.6711373687       10.9556547471       24.3015771811
  H        -7.3876885320       11.6578314696       25.7870716434
  C        -8.4739727101        9.7630376617       26.0486208856
  H        -2.6013304652       16.8281065637       35.0806003003
  C        -3.1551187294       15.4316749819       36.3119934713
  H         4.5389359683        7.1549362950       10.1278392124
  H         3.9147809133        5.8141353685       10.9116383089
  C         2.4144008705        6.8937127152       10.2293768676
  H         6.3139094407        7.1383503944       29.3699458954
  H         4.8327693223        7.4556282582       30.1308602839
  C         6.3632808244        7.1462895639       31.5523300440
  H        -8.1481185243        8.7442636464       25.8260395538
  H        -8.3371056452        9.9272290540       27.1146013275
  C        -9.9115557829        9.8731189272       25.5265732290
  S        -3.7551032443       13.8303504034       36.6277253467
  C        -3.3708897125       16.4265923952       37.3264198900
  H         1.9956732092        5.9072115813       10.0470834403
  H         1.7163978283        7.5631340288       10.7073158739
  H         2.4017119784        7.2713553608        9.1822038048
  H         5.8863828974        7.5758434018       32.5090539898
  H         7.4229587995        7.2605004191       31.5377240393
  H         6.3410713912        6.0817428768       31.6045208446
  H       -10.4515074735       10.7538325786       25.9510671138
  H       -10.5413578603        8.9698816898       25.7473710748
  H        -9.7110609141        9.8755979526       24.5016936441
  C        -4.3851880037       14.5707378415       38.1335358979
  N        -4.1619784533       15.9126183917       38.2722991467
  O        -3.0138672086       17.5898095948       37.2964985327
  S        -5.3413193508       13.9189206508       39.4618809779
  C        -4.5677261958       16.7366554682       39.3942455236
  H        -4.9771743537       17.6232570194       38.9290631886
  H        -5.4933913402       16.3676909809       39.9018117734
  C        -3.3950751869       17.0356946985       40.3421081124
  H        -2.9489593813       18.0319864013       40.0489294761
  H        -3.6026158317       17.0068326413       41.3547353937
  H        -2.5925176988       16.3777696402       40.1967776787
