352
 i =    79500, time =    79500.000, E =        24.9790309689
  H        10.2666277693        7.3001369331       32.0876164940
  C        11.1854114620        6.7316871466       32.3006571028
  H        11.7884099044        7.5630302814       32.6391616576
  C        11.6553062542        6.1914583629       30.9437874517
  C        11.0059349754        5.7422446922       33.4322939084
  C        10.6425721606        5.3038714532       30.2427712689
  H        11.9188291158        7.0564900345       30.3814572494
  H        12.5950784419        5.6598194389       30.9844891579
  H        11.9117198332        5.4290337505       33.9382357505
  H        10.2716685152        6.0174641460       34.1927540855
  H        10.5422792425        4.8305643190       33.0246467662
  C        10.0891826279        5.9948010754       29.0614569705
  H         9.8897650550        5.2033652568       30.9532050010
  H        11.0250997102        4.3250884835       30.1371002150
  C        10.7945052564        5.7535783436       27.6943373741
  H         9.0415004915        5.6172743519       29.0116558709
  H        10.0511480416        7.0920826890       29.1130483928
  C         9.7666935052        5.0346287679       26.7051587725
  H        11.7116612250        5.0984736169       27.7174588425
  H        11.1474155040        6.6375848420       27.1751290680
  C         8.5414984608        5.9876842514       26.2939814599
  H        10.3069735518        4.6825856143       25.8288187630
  H         9.4880954523        4.1695333496       27.2350509897
  C         7.4414810657        5.2184730277       25.5520611580
  H         8.1001462066        6.3946903359       27.2383078056
  H         8.9506652591        6.8498388221       25.6454689244
  C         7.1360652443        3.8892638353       26.2462731681
  C         7.8326931001        4.5300284706       24.2869445263
  C         6.1242189589        5.9057374298       25.2400409328
  C         7.2104652987        2.8069047342       25.4246798069
  C         6.6543633538        3.4579876565       27.5106286197
  C         7.7456634844        3.1988376423       24.2285272701
  C         8.3217981574        5.1229885360       23.1140845818
  H         5.4923813648        5.2062320235       24.6550030048
  H         6.3537246486        6.7393501862       24.5549736105
  C         5.1120633756        6.3991233769       26.3650384429
  S         6.7982777856        1.2932860243       26.1311811120
  C         6.3585192669        2.1143023514       27.5768708556
  H         6.4931958313        4.2376063904       28.2987206797
  C         8.1457617778        2.6001082129       23.0741075921
  H         8.3950197839        6.1718526042       23.2506814734
  C         8.5484941801        4.5535113548       21.9543968240
  H         5.0512697457        5.7493435790       27.2288384826
  H         5.2851356829        7.3559732391       26.8163751713
  C         3.6708365268        6.4310873196       25.8116569441
  C         5.8613584076        1.4844014803       28.8180018169
  C         8.5243606212        3.2255506686       21.8741600999
  H         8.1250189049        1.5872392733       22.9503528075
  C         8.8581626579        4.8986254922       20.6654116320
  H         3.4110443819        5.5123514045       25.2910987635
  H         3.6748968347        7.2283958882       25.0231023656
  C         2.5822438639        6.8671014013       26.7235208957
  C         6.1045757027        0.1542095332       29.1127812328
  C         5.4901157431        2.3624445172       29.9510660868
  C         8.7385609149        2.4246283500       20.6432385877
  C         9.0213375088        3.7816220102       19.8736230646
  S         9.1034147436        6.3962390252       19.8470785517
  H         1.6873449308        7.2226923103       26.1033420032
  H         3.0141554099        7.7225246859       27.3087744398
  C         2.2660478727        5.6297999232       27.6516930533
  N         6.6124806669       -0.8538222179       28.2881448505
  C         5.8155262304       -0.3301750056       30.3704596300
  C         5.2304544154        1.8376360056       31.2463290937
  H         5.4615265890        3.4355410670       29.9128174515
  C         7.4355848332        1.7517292227       20.2036586722
  C        10.0815940992        1.5000865939       20.7094685650
  C         9.5358514953        4.1269554044       18.6010118564
  C         9.5730335290        5.4892871659       18.3447093332
  H         2.6269320036        4.7319513152       27.2111580803
  H         2.8514765222        5.8736738992       28.5190921669
  C         0.7297910820        5.5897625664       27.9786168078
  S         6.7866187571       -2.2116977805       29.0859725104
  N         6.1206402637       -1.7040466431       30.4802609087
  C         5.4077360783        0.4097388075       31.4954508670
  H         4.8147631401        2.4701763909       32.0682873655
  H         7.2311113393        0.9835977529       20.9340101578
  H         7.6095678099        1.2728426103       19.2302306680
  C         6.1012312076        2.5970992226       20.2030643162
  H        10.2637362264        1.1091438671       19.7458611203
  H         9.9458981248        0.7205357676       21.4552801783
  C        11.3625993728        2.3075199912       21.0971235224
  H         9.7572560798        3.3936285329       17.8156437090
  C         9.8045807042        6.1873921022       17.0104818106
  H         0.2195671998        5.1201722677       27.1482081955
  H         0.0729560522        6.4963395522       27.9192916150
  C         0.6036203468        4.7586173614       29.1839280664
  C         5.1590555222       -0.2513896833       32.7434146834
  H         6.2172707699        3.4710914909       19.5901726441
  H         5.9653058492        2.9146486597       21.1990813130
  C         4.7840562429        1.8202434624       19.8067275576
  H        11.1492159031        2.8931404853       21.9789773064
  H        11.7551825865        2.9541696368       20.2946708620
  C        12.4427563578        1.3377468223       21.5368679673
  C         9.8982064990        7.5891034584       16.8967842308
  C        10.1132778534        5.4094076666       15.7208968804
  H        -0.4222227021        4.4372362778       29.2054867640
  H         1.2442942151        3.8848890027       29.0879187911
  C         0.9342042711        5.4225864637       30.5228588205
  H         5.1701857529       -1.2905717586       32.7704786797
  C         4.8576467278        0.2273007538       33.9815602359
  H         3.9265484015        2.3768397868       19.9983950577
  H         4.7490447150        0.8924379537       20.3924788098
  C         4.8509709771        1.4598254751       18.3209039646
  H        12.1726243840        0.9045962867       22.5096739312
  H        12.5699751239        0.5232825278       20.8978669559
  C        13.7871287030        2.0843428027       21.5068388482
  N         9.8514641496        8.5187025758       17.9732243779
  C        10.4619119984        8.1897804371       15.7528375860
  C        10.6210278778        6.0078405226       14.6191688769
  H         9.9529130625        4.3309238371       15.7738029270
  H         0.8515916422        6.4871627900       30.5172683933
  H         0.3879259007        4.9413546897       31.3664093919
  H         1.9463837053        5.2180619941       30.8409733151
  S         4.4444724718        1.7956149674       34.3767193269
  C         4.7512344786       -0.7835503898       35.0619356306
  H         5.0980725921        2.3145148162       17.6509069752
  H         5.6964408513        0.8058876649       18.1862474158
  C         3.5591902052        0.7342074789       17.8486438744
  H        13.6541445471        3.1141103843       21.5234280243
  H        14.3329896756        1.8021742901       20.6201872776
  C        14.6781350306        1.6185462972       22.6075994730
  S        10.1930164412       10.0146285654       17.4305307315
  N        10.5438398778        9.6081118379       15.8889619276
  C        10.8342319939        7.4839254271       14.5754393417
  H        10.9489536776        5.3929617488       13.8333844019
  C         4.1872583572        1.1824244522       35.9833261930
  N         4.3154291007       -0.1221550820       36.1761932443
  O         4.9119380754       -1.9779257020       34.9524370187
  H         3.8473331080        0.5478597748       16.9049487269
  H         2.7241606403        1.3671432873       17.8808599248
  C         3.2104890819       -0.6217564301       18.6793899789
  H        14.1134057839        1.2675289389       23.4982138265
  H        15.2142219981        0.7698638640       22.2780015056
  C        15.7395873402        2.6892395993       22.8824428596
  C        11.2570958776        8.2200571501       13.4450756822
  S         3.6951767357        2.2747372134       37.2805990624
  C         4.1516075531       -0.8448630781       37.4437209088
  H         3.9877650426       -1.3788244588       18.8867846692
  H         2.8047129582       -0.4133301776       19.6664154905
  C         2.0189451693       -1.2450952042       17.9874687126
  H        15.2619775923        3.4412639884       23.3885935783
  H        16.0769480992        3.0339572736       21.9440472015
  C        16.8997286080        2.1624887419       23.7187683350
  H        11.0077816971        9.2122167109       13.5277876503
  C        11.8237138745        7.8224064777       12.2748442969
  H         3.6177477745       -0.2276281611       38.1231248543
  H         3.5072924456       -1.6789951109       37.3776841460
  C         5.5741164395       -1.2497276857       38.0218447018
  H         1.2504877538       -0.5688346659       18.2184937346
  H         1.5918355851       -2.1143120919       18.4799493846
  C         1.9958577702       -1.5713856164       16.5139853861
  H        17.3414917611        2.8365562244       24.4053785205
  H        16.5495848994        1.2531821498       24.2766038429
  C        18.0437076131        1.6279747399       22.9209422537
  S        12.4442143679        6.2590849259       11.8762090244
  C        11.8024980231        8.7971521131       11.1951122956
  H         6.0513615059       -0.2852096398       38.2236097793
  H         5.6023812602       -1.7696724347       39.0055881050
  H         6.1201068121       -1.8159975920       37.3122939144
  H         2.0761642449       -0.6491522947       15.9211529428
  H         1.0739830040       -2.1427782670       16.1843512627
  H         2.8946097835       -2.2129740597       16.2789123381
  H        18.3745861257        2.3630190637       22.2152844254
  H        17.6973420238        0.7779156028       22.2782576556
  H        18.9277879513        1.4608418427       23.6293266450
  C        12.8513618245        6.9463607069       10.2998608390
  N        12.4466780185        8.2040246983       10.1718483861
  O        11.3697288433        9.9505224446       11.3028461711
  S        13.8886685469        6.1963562001        9.1306002365
  C        12.5671873408        8.8860630215        8.9163078297
  H        12.2746680989        9.9607174816        9.0542094591
  H        13.5609273246        8.8887771965        8.5665527217
  C        11.6309403462        8.3410299332        7.8286201773
  H        10.6593545182        8.2138472233        8.3011650272
  H        11.4441563340        9.1102051063        7.0920353797
  H        11.9767378913        7.3811329786        7.4880622809
  H        -3.1557708660       15.0572072252       15.9838855297
  C        -2.7656828509       14.0332867394       16.0024433202
  H        -3.5820895236       13.3695947589       16.1275092123
  C        -1.7538729866       13.9863753362       17.1719361763
  C        -2.2180876061       13.6727565448       14.6506525491
  C        -2.5293928928       13.9348637466       18.5073225986
  H        -1.0379081796       13.1510748106       17.0402360708
  H        -1.1086541212       14.8773577191       17.1412992699
  H        -2.1048202734       12.6630518561       14.3645493125
  H        -2.7601290839       14.0019256048       13.8152641041
  H        -1.2247277375       14.0388192447       14.6292544109
  C        -1.5266557524       13.4559523103       19.5595095051
  H        -3.3837730283       13.2411617835       18.4253188300
  H        -2.8719697100       14.9507832118       18.7396879439
  C        -2.0400199298       13.7310459343       20.9159734949
  H        -1.4143608015       12.3813214167       19.5185326028
  H        -0.5637674129       13.9284794814       19.4859622612
  C        -1.1917188301       13.1726675216       22.1044469357
  H        -2.9563906519       13.1792692760       20.8537547980
  H        -2.2607925373       14.8103149018       21.0361186498
  C         0.1142237842       13.9935699927       22.4313342079
  H        -1.7782481804       13.0787506324       23.0689979044
  H        -0.8416374101       12.2090975599       21.8205501101
  C         1.2540145384       13.2354181631       23.0642321919
  H         0.5547508766       14.4048130317       21.5069594847
  H        -0.0934569040       14.8092217852       23.1105771502
  C         1.5317189881       11.8956319858       22.3664454895
  C         0.8454614497       12.5163883429       24.3351975169
  C         2.4786172086       14.1182949296       23.3071514149
  C         1.3370870428       10.7630375869       23.2129968499
  C         1.8913278453       11.5212814985       21.0761772390
  C         0.9098644015       11.1542643584       24.4379801805
  C         0.4270630354       13.1039928772       25.5383457872
  H         2.7704887705       14.4186822741       22.3313973790
  H         2.2297194897       15.0359331145       23.7867468987
  C         3.7068733690       13.5314009504       23.9949571167
  S         1.6333787852        9.2791214281       22.3904164055
  C         2.0652152601       10.1648075904       20.9534725659
  H         2.1038193274       12.3314840304       20.3642699868
  C         0.5515505080       10.4972762624       25.6453191168
  H         0.3398098870       14.1191904010       25.4012740607
  C         0.0870549231       12.5337451717       26.7389995081
  H         3.9342974964       12.5974473088       23.4394913220
  H         3.3717807148       13.1984746415       24.9348739410
  C         4.9292209607       14.4982820688       24.1344163316
  C         2.6405139698        9.5530005268       19.6881028895
  C         0.0841219820       11.1886249741       26.7973685941
  H         0.4012584471        9.4257648309       25.7408999605
  C        -0.3663424683       12.8915976175       28.0339377573
  H         5.5884504551       14.1780259306       24.9583137595
  H         4.4927292533       15.4481636333       24.4568840490
  C         5.6121518670       14.6847152061       22.7925987633
  C         2.6683886075        8.1242607381       19.4254915854
  C         3.0708739589       10.4166067672       18.5515386031
  C        -0.4374190167       10.4856584616       28.0637231455
  C        -0.7422871487       11.7998600629       28.8097762008
  S        -0.6150306680       14.4001010316       28.8287397992
  H         6.4905314782       15.3022621840       22.8571811583
  H         4.9646928984       15.2619802127       22.1197696830
  C         6.1713464654       13.3742114336       22.1582714133
  N         2.3653234148        7.1263964471       20.3889704570
  C         3.0194250565        7.5835304313       18.1782039718
  C         3.3285967585        9.8656729552       17.3500061122
  H         3.1646949247       11.4835548423       18.6712725105
  C         0.6157476632        9.6199749607       28.7631592933
  C        -1.7952316605        9.6727540664       27.8063349885
  C        -1.2546518658       12.1563818973       30.0200340487
  C        -1.1698927867       13.5193867115       30.2341863735
  H         6.4724587779       12.7839818479       23.0720807109
  H         5.2619788199       12.9297320888       21.6567136305
  C         7.2752975402       13.5738309647       21.1391699263
  S         2.6937722039        5.6584473186       19.6993658819
  N         2.9936109049        6.1738874608       18.1765103837
  C         3.3855228624        8.4055574474       17.0575824341
  H         3.6030233950       10.5637967562       16.5994628132
  H         0.8692259027        8.9541624099       28.0241802913
  H         0.1886148926        9.0001765834       29.5957208968
  C         1.9161779444       10.3983687898       29.1891921637
  H        -1.5852905521        8.8282520110       27.1077899799
  H        -2.1753204101        9.2039440466       28.7301285077
  C        -2.8943286676       10.6590186809       27.1693619685
  H        -1.5878422807       11.4030019665       30.6723805756
  C        -1.4621575714       14.2444270954       31.5450589949
  H         7.9466992553       12.7614340873       21.0135053050
  H         7.9041042595       14.3777057687       21.4477382890
  C         6.5299344372       13.9213969236       19.8397591251
  C         3.6531791730        7.7703421244       15.7220394757
  H         2.4132554120       10.5609724535       28.2214367333
  H         1.6524195686       11.3496982118       29.5969222698
  C         2.8248461125        9.5465254795       30.1554646972
  H        -2.5500655267       11.2681926907       26.3692693720
  H        -3.3686424768       11.2848258669       27.9275677008
  C        -4.1965776168        9.9586520170       26.9040217551
  C        -1.5283165796       15.6346085290       31.7438343445
  C        -1.5908541769       13.4174684385       32.7920957096
  H         5.9059450405       13.0112149201       19.6515052911
  H         6.0179944744       14.8490207441       20.0436358737
  C         7.4402737089       14.0240447440       18.6176437261
  H         3.7138780343        6.7573539172       15.8224979666
  C         3.9165465096        8.2530723884       14.4666684802
  H         3.0381573353        8.6335156054       29.5316851664
  H         2.2942676467        9.1863858002       31.0020884284
  C         4.0488942532       10.3009482573       30.5749868666
  H        -3.9014296239        9.2240392593       26.1604904044
  H        -4.5895774921        9.5366120983       27.8342443475
  C        -5.2369671239       10.9139620893       26.4013788783
  N        -1.3322329142       16.6262607286       30.7695271212
  C        -1.7209092613       16.2360097165       32.9908024883
  C        -1.7302469519       14.0108877732       34.0323914072
  H        -1.5409319883       12.3493383950       32.7517312732
  H         8.2789721166       13.3553041290       18.4656786427
  H         6.8734189696       13.9103412470       17.7502334204
  H         7.9306652214       14.9634775228       18.6359410706
  S         4.1732508122        9.8901226684       13.9403163369
  C         4.0381035589        7.2459024409       13.3343013264
  H         4.3479435384       10.9129718462       29.8282999964
  H         3.7538079723       11.0326261753       31.3310771142
  C         5.2473343899        9.4229137755       31.0630031239
  H        -4.6723261185       11.6814136845       25.8275678456
  H        -5.7339936092       11.4683396819       27.1762025525
  C        -6.2085944627       10.2019336888       25.4308262539
  S        -1.3237258987       18.1006443035       31.5089328264
  N        -1.7013411401       17.6614454823       32.9948200797
  C        -1.9861663805       15.4848965673       34.1688951154
  H        -1.8570600609       13.3486526904       34.9248277063
  C         4.2815902335        9.2308361606       12.3035222847
  N         4.4385084071        7.8546911539       12.2100731940
  O         3.8133586556        6.0684162166       13.5219527993
  H         4.9327782541        8.7271041011       31.8535802477
  H         5.9314202040       10.0978288262       31.6113106249
  C         5.9899860548        8.7851867590       29.9416422967
  H        -5.5994985049        9.7210700706       24.6840471735
  H        -6.7392564090        9.4175215754       25.9717724210
  C        -7.1676992024       11.0567299357       24.6663161992
  C        -2.3249204813       16.1907154399       35.3523179162
  S         4.9358374670       10.1121885997       10.9052301522
  C         4.5946289576        7.0538421008       11.0020477007
  H         5.5643686481        9.2028882899       29.0424121738
  H         7.0045390575        9.0447429610       30.0542717864
  C         5.8155213425        7.2426382783       30.0036296268
  H        -6.6520992713       11.1277602766       23.7219071360
  H        -7.2648373486       12.0054113880       25.0676837508
  C        -8.5769945391       10.3289313485       24.5390331825
  H        -2.2793528322       17.2787937430       35.2626756696
  C        -2.8955822481       15.8476081804       36.5396814024
  H         5.3392008273        7.3986025801       10.2802953368
  H         5.0197618489        6.0496242633       11.2796314456
  C         3.2073086108        6.7918784832       10.3300461822
  H         6.0166255015        6.8722064564       29.0062981643
  H         4.7664958208        6.9804384201       30.0983441872
  C         6.6739040757        6.4260579714       30.9794928970
  H        -9.1510450380       10.9530348486       23.8105191365
  H        -8.5105065915        9.2836695013       24.1206888304
  C        -9.4483400251       10.3076115314       25.7623075395
  S        -3.4721757832       14.3743373298       36.9928247382
  C        -3.0139410447       16.9855854787       37.5638520182
  H         2.9977742133        7.6152630025        9.7110113249
  H         3.1104487444        5.8625799416        9.7946299941
  H         2.3961467490        6.7493615962       11.0491801198
  H         6.2402082370        6.5435138356       32.0064263728
  H         7.6785544461        6.7006915692       30.9595539772
  H         6.6627914431        5.4026995072       30.7164471019
  H        -9.3525257095       11.2765579149       26.2954331165
  H        -9.3124620812        9.4159520824       26.3724663008
  H       -10.5065473390       10.3886730627       25.5797884247
  C        -3.9679517327       15.1432580739       38.5204087951
  N        -3.5534843021       16.4555164457       38.6776687773
  O        -2.4965159342       18.0772961573       37.4322617911
  S        -4.7806288927       14.4094108666       39.9283336707
  C        -3.6960410534       17.2500362309       39.8667149444
  H        -3.7047563849       18.3284840641       39.6341049567
  H        -4.7392816402       17.0962827068       40.2471386825
  C        -2.6529010883       16.8784356341       40.9400236254
  H        -2.1610000684       15.9390639012       40.7337949009
  H        -1.7690840817       17.5049618007       40.8454319198
  H        -2.9619794832       16.9762897403       41.9536478469
