352
 i =    57600, time =    57600.000, E =        24.9339364020
  H        10.3793094751        5.1870101583       31.4558289899
  C        10.8996207287        6.0795466790       31.8751114260
  H        10.1496231607        6.6950047333       32.3403831538
  C        11.5031243139        6.8598703967       30.6563657205
  C        12.0318231047        5.5768472028       32.7446232083
  C        11.7836724772        5.9038263371       29.4981757429
  H        10.7911381047        7.6468326121       30.3154028128
  H        12.3942507393        7.2376879978       31.0117702877
  H        12.8404718040        5.1883229359       32.1363821772
  H        12.2982481018        6.4039153383       33.3936646506
  H        11.6506240809        4.8064460711       33.3479996028
  C        10.5870515065        5.3976076022       28.7646744105
  H        12.4404565650        5.1072960249       29.8114403090
  H        12.3587546198        6.4964608889       28.8186131939
  C        10.8170013146        5.3987213713       27.2537103598
  H        10.2333790424        4.4146496636       29.1286347421
  H         9.7581200422        6.0726845548       28.8843794836
  C         9.5900131229        4.8547660939       26.5364431621
  H        11.6911818135        4.6815464525       27.1285298423
  H        11.0644277203        6.4219398492       26.8485922462
  C         8.4239028300        5.7417849638       26.0405177641
  H        10.0235310991        4.3049209819       25.6509551390
  H         9.2109981036        4.1087487021       27.1750325720
  C         7.3063544455        4.9845880267       25.2378409629
  H         8.0333288331        6.4873864439       26.7055891725
  H         8.7946195956        6.4340548045       25.3940236355
  C         6.9515632627        3.6067930633       25.9002772031
  C         7.7263368196        4.2955407474       24.0112586605
  C         6.1932027140        5.9031102750       24.7868320734
  C         7.1452714189        2.5307404353       25.0919506311
  C         6.5619214842        3.1916229021       27.1780502141
  C         7.6975572996        2.9473309198       23.9011312427
  C         8.4670923740        4.9506071131       23.0218547076
  H         5.6333528132        5.3758882816       24.0007863839
  H         6.5568470435        6.8752830225       24.3572927226
  C         5.2236651787        6.2775970913       25.9999756056
  S         6.8549174642        0.9811031079       25.9747952802
  C         6.3641815305        1.8754930420       27.3631809409
  H         6.4647866641        3.9722284986       27.9328478621
  C         8.1897004544        2.3346648202       22.8053446511
  H         8.4779585042        6.0243700846       23.0530574636
  C         8.7231216198        4.3364417819       21.8253005317
  H         5.5031081945        5.5915600274       26.7413772812
  H         5.4575443556        7.2211301216       26.5310510144
  C         3.7885703707        6.3868788733       25.4052408975
  C         5.9258447751        1.2779291033       28.6222127294
  C         8.6704049960        3.0239266089       21.6695415955
  H         8.2137097657        1.2702040984       22.7254754644
  C         9.2297073289        4.7179671615       20.6103663704
  H         3.5896321637        5.3989204023       24.9103463896
  H         3.6542755984        7.0887980998       24.6115488414
  C         2.6770610177        6.3680851883       26.4793547142
  C         5.9284104556       -0.1111309388       28.9045262510
  C         5.2900202068        2.1558181698       29.6544334049
  C         9.0084827483        2.2964081528       20.3313502694
  C         9.3519709122        3.6679747041       19.6910212082
  S         9.2406214431        6.2725814372       19.8244623848
  H         1.7089935710        6.7560247570       26.1308357867
  H         3.0197061474        7.0916820065       27.2216104485
  C         2.4867079235        4.9452524353       26.9803140415
  N         6.2451285699       -1.0778217619       27.9646925435
  C         5.6299057805       -0.6262720334       30.1559895203
  C         4.9975599026        1.6439464710       30.9289250814
  H         5.2130447273        3.2556420115       29.5464853764
  C         7.7519511778        1.5511434806       19.8007935379
  C        10.2703897901        1.4120583858       20.4238683230
  C         9.8879477264        4.1045741698       18.4265746058
  C         9.8003999311        5.5018186296       18.3514871070
  H         1.9145892577        4.3314172690       26.3415259936
  H         3.3748440663        4.4149347724       27.2789787424
  C         1.7116954803        4.9468831485       28.2669196645
  S         6.3052602745       -2.5122642625       28.7065447587
  N         5.6570863206       -1.9855985909       30.1697790027
  C         5.1553778849        0.1590821684       31.2780102148
  H         4.6185126664        2.3404716729       31.6422143640
  H         7.3326087415        0.9127690178       20.6318082566
  H         8.1842568095        0.8211034511       19.0468897323
  C         6.6269297581        2.4128198837       19.2563529870
  H        10.6459832936        1.1747450629       19.4270305992
  H         9.9031015321        0.5365990658       20.8935221382
  C        11.5238994682        2.0202490952       21.1008671796
  H        10.2917149655        3.3740271699       17.7502436142
  C        10.1426240523        6.2560833734       17.0799032596
  H         0.9286346899        4.1805499948       28.2104689454
  H         1.1931865147        5.9016900191       28.2009145832
  C         2.6833064502        4.8158864291       29.4968805022
  C         4.9427980486       -0.4762274293       32.5783849540
  H         6.9563321677        3.1443021601       18.4773584143
  H         6.1542483235        2.9788876942       20.1016145735
  C         5.5507861464        1.4723492362       18.6830940928
  H        11.1530177712        2.3904293826       22.1123356257
  H        11.8586012336        2.8523058451       20.5927991684
  C        12.6483467657        1.0365770394       21.2652653518
  C        10.2502545568        7.6828671277       16.9187480467
  C        10.4862286214        5.4322789898       15.8124653444
  H         3.2006183340        3.8254120097       29.5817116311
  H         3.4507166515        5.5877815642       29.3724167958
  C         1.9817249964        5.0717025847       30.8099737897
  H         5.1154120664       -1.5186361239       32.5228404764
  C         4.7296664879       -0.0747263891       33.8147788234
  H         5.0595803355        0.9107192313       19.4865115504
  H         6.0470856297        0.7628385473       18.0246728609
  C         4.5033193085        2.3043356709       17.8709340743
  H        12.5777157233        0.5489727408       22.3018454617
  H        12.6683930645        0.2800051558       20.3881358573
  C        14.0916534975        1.6102753656       21.2661931222
  N        10.0753078825        8.6633082829       17.9334478668
  C        10.5313650670        8.2683517901       15.7079880222
  C        10.8242259407        6.0113073458       14.5754559043
  H        10.4836984926        4.3759000953       15.7399680589
  H         0.9986425509        4.6097626668       30.8270492225
  H         2.5213104520        4.6154232897       31.6444828503
  H         1.9090357161        6.1294314510       30.9545284317
  S         4.6086393776        1.5674821474       34.3843614226
  C         4.4536034021       -1.1162578944       34.8473070372
  H         4.4343389700        3.3307982451       18.2942348899
  H         4.8779162488        2.5672982946       16.8925752517
  C         3.0319372750        1.8337798881       17.9161223592
  H        14.2690994743        2.4748100088       20.6442380750
  H        14.7513085121        0.7899216951       20.8739592556
  C        14.5351463259        1.9333155434       22.6605223961
  S        10.1468615812       10.1006805517       17.3058311393
  N        10.6411957209        9.6618848125       15.8297761757
  C        10.8560232468        7.5276501456       14.5356828718
  H        10.8662107321        5.3936649750       13.6902039842
  C         4.0804174282        0.8706362663       35.9240465203
  N         4.1293094034       -0.4930561866       36.0266105673
  O         4.4936859088       -2.3087591370       34.5961724511
  H         2.4258263605        2.6008550178       17.4265214030
  H         2.6946945249        1.9310357882       18.9098888856
  C         2.9131592655        0.5095812689       17.1512394609
  H        13.7900843773        2.5691619317       23.1047929172
  H        14.5388161268        1.0180707967       23.2279681814
  C        15.9481517035        2.5492179171       22.7330024494
  C        11.2547297326        8.3041359933       13.4002667049
  S         3.7510892042        1.8333218405       37.3954099685
  C         4.1638455805       -1.2495241507       37.2330890156
  H         2.4757281354        0.7006954652       16.1421777603
  H         3.8736049835       -0.0128291436       16.8232958656
  C         1.8331554303       -0.3866713795       17.9018988345
  H        16.1510979472        2.6993539656       23.7650066063
  H        16.0856177035        3.4734320263       22.1511714093
  C        17.1490407790        1.7252676897       22.3538497392
  H        10.9530868938        9.3502509916       13.3315357863
  C        11.7413120518        7.9205337570       12.1890758071
  H         3.5657466489       -0.6775766798       37.9581913175
  H         3.5942164919       -2.1677572163       37.0323253324
  C         5.5372059295       -1.5683435861       37.8159905692
  H         0.9432434370        0.2754551758       18.0645006329
  H         2.1770743678       -0.7628250710       18.8607193040
  C         1.3462775124       -1.6063217967       17.1741890003
  H        17.1430149007        0.8475108422       23.0004261577
  H        17.1860877246        1.5284243276       21.3011424802
  C        18.5049589777        2.4057495367       22.6707956077
  S        12.2426112318        6.3396695243       11.6604940803
  C        11.9353318978        8.9704140808       11.1753587683
  H         5.8369041163       -2.6286746890       37.5392416309
  H         6.1099458992       -0.8691222008       37.2656609712
  H         5.7370268274       -1.4076149766       38.8967930201
  H         2.0760018319       -2.4512056767       17.1354817813
  H         0.9574366213       -1.3972138440       16.1488409630
  H         0.4946552227       -1.9656765020       17.7640721291
  H        18.6533794873        3.4115933010       22.4091336793
  H        19.2207061113        1.8549865319       22.0044927973
  H        18.7385772873        2.2511456375       23.7120590599
  C        12.7780438882        7.1025336435       10.1947538717
  N        12.5294339306        8.4441670321       10.1278422153
  O        11.6736660776       10.1648205432       11.3686450549
  S        13.2243681848        6.1697838034        8.7876804855
  C        12.7195294613        9.2725904228        8.9301873059
  H        13.0814297239       10.1922553275        9.2417129517
  H        13.4665942135        8.8322230279        8.3471616595
  C        11.4471912834        9.2552216523        8.0768592570
  H        11.3812978424       10.1899967399        7.4966726327
  H        11.4076379783        8.3334249714        7.3695630412
  H        10.5666034376        9.1060333557        8.6944206887
  H        -4.0488412425       12.8507360637       16.2552528541
  C        -3.0370846689       13.1687542191       16.4060744094
  H        -2.4545647718       12.2353505237       16.5492807247
  C        -2.8172646237       14.1292864680       17.6211703840
  C        -2.6643577895       13.9248773249       15.1726547444
  C        -2.9824516521       13.3770465181       18.9834422085
  H        -1.8627742502       14.6865570483       17.5501677349
  H        -3.4544411078       15.0398601163       17.7811951813
  H        -1.6609217559       14.1521114173       15.0739424837
  H        -2.9311562040       13.3915885890       14.3192493799
  H        -3.2442230637       14.8145336128       15.1121981750
  C        -1.8347139488       13.5680024370       19.9238244987
  H        -3.1889347635       12.3135129264       18.8708211144
  H        -3.7767999372       13.8906238868       19.4698152786
  C        -2.3435446062       13.3617373631       21.4316391251
  H        -0.9444352842       12.8153927905       19.7706646820
  H        -1.2984570120       14.5326606735       19.8144514805
  C        -1.2881879804       12.7153046122       22.3712407884
  H        -3.2122391966       12.6653161976       21.5114082341
  H        -2.7193729970       14.3275603142       21.6669034314
  C        -0.0593144477       13.6844464354       22.6280186803
  H        -1.7228946589       12.5621609601       23.3766887664
  H        -0.8915076424       11.7037459305       21.9870353985
  C         1.2480804637       13.0286180681       23.2174368483
  H         0.1633317875       13.9803366709       21.6350907352
  H        -0.2425269245       14.5248116818       23.2772287540
  C         1.6646119742       11.7470560102       22.4937069778
  C         0.8788202004       12.2376938944       24.4279944303
  C         2.4088021195       14.0553641025       23.3890022860
  C         1.4109364442       10.5745163243       23.2381092984
  C         2.1696677449       11.3441352354       21.2426901190
  C         0.9166890212       10.9153943347       24.4570630164
  C         0.5004609192       12.8736234195       25.5966125730
  H         2.5577779383       14.5518863680       22.4337204354
  H         2.2529611208       14.7432256608       24.1676128075
  C         3.6998671484       13.3631076421       23.8116050430
  S         1.8007490386        9.0769093301       22.5139560350
  C         2.2403040024        9.9671451345       21.0934017545
  H         2.3779300598       12.1004116184       20.5501495539
  C         0.4681215916       10.2972240102       25.5945954892
  H         0.4982169293       13.9536821789       25.5827589813
  C         0.0261014473       12.2927912677       26.7609252788
  H         3.9942766365       12.5359180795       23.1438215360
  H         3.6047956936       12.9500206474       24.8026635901
  C         4.8774718104       14.3385782417       23.8263848667
  C         2.7252096869        9.3515258840       19.8255172027
  C         0.0011406671       10.9360994551       26.7414938119
  H         0.5004170821        9.2004039041       25.7327924535
  C        -0.4539102995       12.6462394700       28.0020454159
  H         5.6598719314       13.9099579004       24.5384449837
  H         4.4851255158       15.3163617743       24.2889352367
  C         5.5422573253       14.5764239509       22.4310191906
  C         2.7016057672        7.9996073310       19.5048441367
  C         3.2299605165       10.1874973284       18.6820189486
  C        -0.4229001699       10.2153113671       27.9330523389
  C        -0.7099669199       11.5351447600       28.7483468306
  S        -0.7362491042       14.1421569059       28.8534228106
  H         6.3230466580       15.3455546786       22.4462997665
  H         4.8238767459       14.8610188981       21.6885246461
  C         6.2378957152       13.2495559213       22.0333946984
  N         2.2756215753        7.0353461474       20.4067638540
  C         3.0819027932        7.4307980420       18.3068147176
  C         3.5147922881        9.7104360135       17.4230329797
  H         3.3529177357       11.2474915451       18.8178570853
  C         0.6650736088        9.3309722157       28.5991664203
  C        -1.6221182699        9.3033184563       27.7427162699
  C        -1.2613811265       11.8148847505       29.9885026565
  C        -1.2686961495       13.1966744155       30.2043039801
  H         6.8162435935       12.8064776750       22.9025393682
  H         5.5047975990       12.5081602486       21.8376632777
  C         7.0462646098       13.4000777813       20.7771798187
  S         2.3828214146        5.5875575478       19.7064253574
  N         3.0531715548        6.0503241387       18.2973418217
  C         3.4991892045        8.1938430316       17.2021542239
  H         3.9448015354       10.3373267973       16.6727627803
  H         0.9314939423        8.4848638661       27.9569517384
  H         0.2716749437        8.7173102503       29.3962081443
  C         1.8781939706       10.0936992761       29.0886686750
  H        -1.3374807500        8.4342694463       27.1457493046
  H        -1.8450898465        8.8928915023       28.7649872917
  C        -2.7972640543        9.9891617944       27.1514118977
  H        -1.5272545335       11.0680934479       30.7096465563
  C        -1.6921322254       13.8182244481       31.4787293728
  H         7.6527450362       12.4686189802       20.6820564094
  H         7.6761677048       14.2056856821       20.7270234196
  C         6.2368232683       13.4625082837       19.4970208869
  C         3.7491862134        7.5000974829       15.9541961904
  H         2.3677958397       10.5527149710       28.1648882074
  H         1.5700900963       10.9081274133       29.8109333866
  C         2.8457377124        9.0592210815       29.8087620350
  H        -2.5182917172       10.3374216657       26.1591196916
  H        -3.0030533883       10.8713504152       27.7965372351
  C        -4.0121798298        9.1068433073       27.0328554172
  C        -1.6375543286       15.1614030893       31.7000731413
  C        -1.9426533346       12.9462380065       32.6407225382
  H         5.4230340952       12.7428429256       19.4060647399
  H         5.8357168003       14.5153046573       19.4678541952
  C         7.1348427909       13.3349361473       18.2566694920
  H         3.4806775239        6.4580998260       16.0158143718
  C         3.9917191555        8.0097974347       14.6926702623
  H         3.2662703881        8.5316108471       28.9540132412
  H         2.2628683420        8.3051243212       30.2862755532
  C         3.8406993274        9.6620559277       30.7342833164
  H        -3.9932645462        8.3774413351       26.1998655323
  H        -4.2434082892        8.5187943601       27.8736130903
  C        -5.2636949951        9.9045813424       26.7311246893
  N        -1.2882621751       16.1444700099       30.7153015578
  C        -1.9119968695       15.7449686556       32.8884165348
  C        -2.2396535552       13.5475492049       33.8635735262
  H        -1.9119325623       11.8486234802       32.6068619878
  H         6.6592044779       12.7831382294       17.4248709835
  H         7.5888810606       14.2869935154       17.9247613670
  H         7.9053319983       12.5746520183       18.5613778080
  S         4.1733721173        9.6182803274       14.2740392256
  C         3.9799405266        6.9899451771       13.5904719104
  H         4.2079737497       10.5778521437       30.2537194994
  H         3.3662456721        9.8640868051       31.7317752185
  C         5.0965867185        8.8508357532       30.9595211942
  H        -4.8897758039       10.8586769359       26.2482590411
  H        -5.7844085273       10.1276940529       27.6975124751
  C        -6.1613796731        9.1974841270       25.7508207260
  S        -1.2558091646       17.5650809368       31.4833553962
  N        -1.8030360819       17.1474019921       32.9701484337
  C        -2.1966983859       15.0005698212       34.0596314284
  H        -2.2342650276       12.9565854021       34.7613993446
  C         4.2719736913        9.0174991879       12.6407624127
  N         4.3577368310        7.6738375969       12.4543081922
  O         3.7971586860        5.7874035587       13.6574189976
  H         5.7419006840        9.5919128443       31.4803080087
  H         5.6052932978        8.5682306686       29.9332822651
  C         4.9146005799        7.5347202466       31.6238682923
  H        -5.6240600983        8.8361315609       24.9801334364
  H        -6.7667133979        8.3777440989       26.1761920583
  C        -7.1247254747       10.1910863586       25.0158490001
  C        -2.4452992354       15.6075473393       35.3226495070
  S         4.8151949637       10.0599874234       11.2549221380
  C         4.4593776814        6.9374154342       11.2422344924
  H         4.4994442129        7.7195499346       32.6173116107
  H         4.1845958774        6.9200581205       31.0454141324
  C         6.2733979605        6.7522705329       31.7514223251
  H        -6.6479318746       10.4320940319       24.0947630724
  H        -7.0563112079       11.1176231901       25.5358031062
  C        -8.5383168970        9.6718367828       24.8861426694
  H        -1.9596823697       16.5680245421       35.3761645687
  C        -3.0861257987       15.2271626486       36.4507875053
  H         5.1255151790        7.4412964154       10.5551726258
  H         5.0333228578        6.0130443962       11.3888091284
  C         3.1319497719        6.8164585728       10.6357462135
  H         6.2607646746        5.8976749088       32.4809163761
  H         7.0864698379        7.4017124386       32.0896961443
  C         6.7216248096        6.2621881428       30.3595996584
  H        -9.1359011755       10.2169639034       24.1471638921
  H        -8.4568332599        8.6514525486       24.4851692758
  C        -9.3114408632        9.7224645087       26.1675494841
  S        -3.7761847257       13.6012241356       36.8104188137
  C        -3.1217938298       16.2156334947       37.5626003248
  H         2.9087541895        7.8292488679       10.4137344073
  H         3.0324531379        6.2107120820        9.7440548633
  H         2.4782884979        6.4779294618       11.4433274680
  H         6.0209463901        5.7068557949       29.7870346057
  H         7.6592440132        5.7047459621       30.4283422451
  H         6.9391947178        7.0117317962       29.6255289795
  H       -10.3849183887        9.4927852662       26.1153915718
  H        -9.2367701830       10.8008261539       26.5099515588
  H        -8.8855821620        9.0334286333       26.9505225078
  C        -4.2120418808       14.3569330409       38.4004074882
  N        -3.9216756769       15.6643702663       38.5749727111
  O        -2.6440758448       17.3211602046       37.5078936986
  S        -4.4743216295       13.3944906178       39.8128906986
  C        -3.9870423245       16.4157570800       39.7659072720
  H        -4.1506666630       17.4726186450       39.5485903433
  H        -4.9506632564       16.0416718913       40.2218368459
  C        -2.8142747937       16.2386579019       40.7222914158
  H        -2.3087787753       17.1563321673       40.9614689314
  H        -3.1860537476       15.8245116712       41.6480283443
  H        -2.0325435084       15.5781990514       40.3003694678
