352
 i =    95400, time =    95400.000, E =        25.1919837696
  H         9.9826657816        5.3081868236       31.9548868948
  C        10.5251083800        6.1746098017       32.1978518544
  H         9.8700638873        6.8082902875       32.7520607764
  C        10.8652565858        6.8351041074       30.8304898882
  C        11.7622432818        5.7649599075       33.0345529283
  C        10.9440944795        5.9263929489       29.6468560427
  H        10.1415037320        7.6238084250       30.6299848233
  H        11.8698799149        7.3523155479       30.9858017578
  H        12.5252259349        5.3690669445       32.3456946620
  H        12.1180498685        6.7087449649       33.5009376554
  H        11.5844038202        4.9725293415       33.7939337964
  C         9.6921922165        5.8818868801       28.7087177111
  H        11.3452981212        5.0001437996       30.0205009668
  H        11.8191593577        6.3226320397       29.1591538431
  C        10.3203111656        5.8287100506       27.3317940168
  H         9.0307953213        5.0820210624       29.0160800128
  H         9.0161785744        6.7171300186       28.9427241436
  C         9.5030054977        5.1621763400       26.3440913089
  H        11.2742390157        5.2692258597       27.4282562567
  H        10.6400494950        6.8061366572       26.9604213364
  C         8.1665216670        5.9269002318       26.0931237205
  H        10.0895235962        5.1374206718       25.4605501002
  H         9.2756846474        4.1508189108       26.6023434378
  C         7.2256999855        5.1693784315       25.2706494663
  H         7.6478230150        6.2566830306       26.9804989075
  H         8.5482720518        6.8130967953       25.6018141209
  C         6.8472598823        3.8461901462       26.0024688594
  C         7.7888184765        4.4397462922       24.1097529032
  C         6.0021309298        6.0088329587       24.8658048233
  C         7.1255469753        2.7136701808       25.2321740473
  C         6.2740907330        3.4158586075       27.1908350492
  C         7.6958914298        3.1162475868       23.9802496916
  C         8.3231119600        5.1537916028       23.0094122860
  H         5.6798519515        5.4792518269       24.0396050920
  H         6.3386025886        6.9862509223       24.4750584927
  C         4.9704141613        6.3808692984       25.9866454146
  S         6.8669121542        1.1685589308       26.0169601019
  C         6.4321121153        2.0510781245       27.3986001849
  H         5.8753226567        4.0756016335       27.9777479185
  C         8.2407084715        2.5397896871       22.8747698226
  H         8.3627285509        6.2203990552       23.0816361211
  C         8.7753574603        4.5501611269       21.9031963019
  H         4.9207746072        5.6858538138       26.7410542737
  H         5.3168694671        7.3077492327       26.5557264611
  C         3.6163382346        6.6195997780       25.3399950754
  C         5.9461770389        1.3521512179       28.6110347400
  C         8.7989171123        3.2173749725       21.8171881912
  H         8.2170091771        1.5159057236       22.6773517322
  C         9.2526022666        4.9118747819       20.7015099204
  H         3.2144630270        5.8612613403       24.6791360066
  H         3.7470668643        7.4099536141       24.6419246518
  C         2.5031316536        6.9708603620       26.3868275463
  C         6.1337212753       -0.0563788342       28.9129103070
  C         5.6840840239        2.2222433707       29.7851377243
  C         9.3724780730        2.5291051817       20.6170779829
  C         9.6028394521        3.8517570493       19.8570940374
  S         9.5767727337        6.4757865282       19.9826108043
  H         1.7154744177        7.3865254261       25.8162487362
  H         2.8256701017        7.6193927288       27.1770982601
  C         1.9569390012        5.6593254456       26.9516157663
  N         6.7159521564       -1.0321102569       28.0670917508
  C         5.7392217825       -0.6154132897       30.1723030727
  C         5.3391204161        1.6597106514       31.0631906590
  H         5.5511922102        3.2917829825       29.6802273809
  C         8.3328039538        1.7072244370       19.8699844781
  C        10.6858901735        1.6843324691       20.7729041065
  C        10.0811656941        4.3139316953       18.5847822517
  C        10.0600856988        5.6828231893       18.4750810037
  H         1.1344775576        5.3667529871       26.2708262765
  H         2.6810484390        4.8309769949       26.9825115613
  C         1.3259102295        5.6369841958       28.4098572937
  S         6.7564790632       -2.4748807515       28.8586207076
  N         6.1539000656       -1.9656173340       30.2961403206
  C         5.3334679097        0.1684195213       31.2710916931
  H         5.0329817706        2.4450878352       31.8246435121
  H         8.1999089700        0.8084509426       20.3187484797
  H         8.9442533679        1.3565617746       19.0372780395
  C         6.9865900688        2.3690726751       19.6600801518
  H        10.9853594611        1.3516650797       19.7717001210
  H        10.6765414593        0.9156908380       21.4672189931
  C        11.8479508075        2.5764663178       21.1373220222
  H        10.2929033165        3.6874215885       17.7666317407
  C        10.2247970564        6.4866277816       17.1894675857
  H         0.7276304046        4.7123175416       28.5161517574
  H         0.6493368461        6.4914281003       28.3902576235
  C         2.4283212253        5.8934504846       29.4130773552
  C         5.2634354805       -0.5747845467       32.4782712678
  H         7.1105573575        3.2295048922       18.9968203908
  H         6.5510483356        2.6845570283       20.5596781402
  C         6.0033251842        1.5470169082       18.8706310878
  H        11.4773902451        3.2697396553       21.8736304252
  H        12.1119025711        3.1689450180       20.2672107589
  C        13.0597887006        1.8402805640       21.6798801492
  C        10.2486818227        7.8625188491       17.0172133734
  C        10.5938658590        5.7302649237       15.9792689115
  H         3.2947876475        5.2478348776       29.1905828939
  H         2.7806047406        6.9822740572       29.3087901442
  C         2.0904690813        5.7320033302       30.9007662896
  H         5.0935186058       -1.6285170949       32.3058855230
  C         5.0358552881       -0.1334466713       33.7735218198
  H         5.7797053451        0.6551495013       19.3937847069
  H         6.4108044660        1.0612905009       17.9392284024
  C         4.6948599386        2.3718808031       18.7665002109
  H        12.6836024498        0.9682708130       22.2565215744
  H        13.6078085090        1.4452306593       20.8349516715
  C        13.9235930842        2.8105884096       22.5917080184
  N        10.0882937605        8.7735973463       18.0608225490
  C        10.6551826676        8.5350896913       15.8634866874
  C        10.9349597976        6.3632686350       14.8185509463
  H        10.5949374262        4.6305753289       15.9267669730
  H         1.7354264177        4.7608341624       31.1523920655
  H         3.0230910833        5.9476028104       31.4794289063
  H         1.3131883400        6.4978238874       31.0674465649
  S         5.0388468397        1.4898167503       34.2697643426
  C         4.8030289328       -1.1274584660       34.8828545812
  H         4.5959445128        3.1068625222       19.5356325347
  H         4.7064620347        2.7917043917       17.8279076603
  C         3.3953590186        1.5443060381       18.9032117997
  H        13.2516288539        3.0889341208       23.3943479584
  H        14.1460524867        3.7278841048       22.1101625597
  C        15.2020809994        2.0925660989       23.1210440723
  S        10.1786664325       10.2817649265       17.4649616909
  N        10.7578498359        9.8862766434       16.0020060741
  C        10.9489129507        7.8524081761       14.6880265898
  H        11.0070498500        5.6876701560       13.9869788313
  C         4.4513090487        0.8713624378       35.8545227577
  N         4.5413132429       -0.4543699883       36.0241465702
  O         4.7679768452       -2.3622050181       34.7255758215
  H         2.4251922876        1.9753545395       19.0177985367
  H         3.5534025646        0.9730617006       19.7724813623
  C         3.2648210669        0.6122483159       17.6745988301
  H        14.7505183182        1.3647082587       23.9007817519
  H        15.5017813927        1.4099558933       22.3508387420
  C        16.4273196438        2.9979822431       23.5547431610
  C        11.2148431806        8.6076245768       13.5417678373
  S         4.1590411636        1.7987735250       37.3775060348
  C         4.3894362907       -1.1680388141       37.3441271750
  H         3.0956321106        1.1275534347       16.7358671639
  H         4.2833693422        0.1434697735       17.5532526963
  C         2.0791177372       -0.3608093038       17.8319729670
  H        16.2440370596        3.5381022517       24.4041901888
  H        16.7024250919        3.6709871362       22.7814313274
  C        17.6054155504        2.0388257187       23.7463692740
  H        10.8284931776        9.5991878074       13.5610741391
  C        11.8556029796        8.2166966750       12.3958371641
  H         3.9703845944       -0.5552541222       38.0945460077
  H         3.6859073692       -2.0038599970       37.4114038338
  C         5.8281428451       -1.4559000347       37.7162035946
  H         1.2237402105        0.1242300836       17.5475994525
  H         2.0709349312       -0.6128368456       18.9401030788
  C         2.2686813594       -1.6928328365       17.1223681807
  H        18.3664213989        2.5262629261       24.3910752233
  H        17.3708666399        1.0996175802       24.2010457340
  C        18.2353561931        1.7726017177       22.3864616010
  S        12.5376421813        6.7442650914       12.0274044500
  C        11.7967001357        9.2054182079       11.2694573775
  H         6.1939582083       -2.3150834286       37.2468160729
  H         6.5013727988       -0.6656983837       37.5309517760
  H         5.8774201877       -1.5803498673       38.7887032432
  H         1.8346517954       -2.4840536871       17.7164425862
  H         3.2959212566       -1.9763569283       17.2164710428
  H         1.9392051262       -1.5825449224       16.0533104043
  H        19.1240934774        1.0878156553       22.5009193788
  H        18.5644040094        2.7484248618       22.0266394555
  H        17.5735389537        1.3245207597       21.6893587382
  C        12.7436355176        7.2805250372       10.3485683129
  N        12.4655304427        8.6241387580       10.2393364641
  O        11.4478917364       10.3641026764       11.3319805447
  S        13.7230545622        6.4358283690        9.1134653235
  C        12.6655428645        9.3446781310        8.9859322868
  H        12.6443843265       10.4460199476        9.0163570405
  H        13.6112444896        9.1019929752        8.6750859330
  C        11.5298274330        9.0875651197        7.9995457727
  H        11.4516175392        9.8653583137        7.2345941815
  H        11.7894028105        8.2184725334        7.4267518020
  H        10.6039737220        8.9873865469        8.5581725034
  H        -3.7143883901       13.7562564440       16.3483158734
  C        -2.5835228404       13.7675327239       16.7581599108
  H        -2.3128924044       12.7937778972       17.1293551671
  C        -2.4108809759       14.7509653342       17.8815652092
  C        -1.6688547391       14.1340093435       15.6214488712
  C        -2.7842320470       14.2365188679       19.2148957051
  H        -1.4324661335       15.2094256153       17.8623446444
  H        -3.2033848789       15.5479219696       17.6959987519
  H        -1.4997768594       13.3572047566       14.8825269989
  H        -1.9764173089       15.0437266293       15.1066758086
  H        -0.6207066710       14.2734756749       16.0678116610
  C        -1.5644249147       13.7979717309       19.9813303190
  H        -3.4900106571       13.4740903542       19.0073501742
  H        -3.2600042986       15.0629562333       19.6539900042
  C        -1.8709602820       13.5313237904       21.4259545649
  H        -1.0036350396       12.9178242113       19.5612143519
  H        -0.9259178780       14.6408668342       19.9526136096
  C        -0.7066756747       12.9324927154       22.2154838860
  H        -2.6674872679       12.7694925937       21.4129294121
  H        -2.2688772481       14.3626980251       22.0243063221
  C         0.2886023593       14.0378666535       22.7921663492
  H        -1.0836633017       12.3110562584       22.9803817826
  H        -0.1565898652       12.3243556399       21.5550993375
  C         1.5231957455       13.3649678377       23.5104181472
  H         0.6631187463       14.5789966607       22.0304556718
  H        -0.2048878897       14.8330795815       23.3410862622
  C         2.0178517416       12.0627193498       22.7188660045
  C         1.1401843331       12.5918554516       24.6611311080
  C         2.6653197446       14.3321465046       23.9263889196
  C         1.6942579839       10.8862890014       23.4360928054
  C         2.6048133341       11.7252284796       21.4712885601
  C         1.2489617686       11.1989457370       24.7346838662
  C         0.5602087240       13.2060635543       25.8164593492
  H         2.2668356281       15.2429105050       24.3888894024
  H         3.2417019632       13.9640487240       24.7464907196
  C         3.5650082645       14.8035808960       22.7755469491
  S         2.0642885750        9.4485063781       22.5799386486
  C         2.6183245601       10.3626099553       21.2548954196
  H         2.8432235613       12.5272869563       20.8361379727
  C         0.8156888566       10.5165521334       25.8586126041
  H         0.5324579771       14.3299678978       25.8932606819
  C         0.1484076830       12.5186135022       26.9482509292
  H         3.4224674559       15.7283897846       22.2543440976
  H         3.4936232710       14.1251383731       21.9768222223
  C         5.0879738326       14.8513175827       23.2793981975
  C         2.9785477274        9.6371562524       19.9733707654
  C         0.1989505424       11.1403372948       27.0131619297
  H         0.7221493042        9.4468330037       25.8976169588
  C        -0.3030463164       12.8019999666       28.1974452455
  H         5.2812614158       14.0073001825       24.0030164153
  H         5.1409399381       15.9245539893       23.7016578365
  C         6.1531778311       14.8449939140       22.1961787845
  C         2.9668892682        8.2145745417       19.7470432088
  C         3.3575477838       10.4489600973       18.7708299376
  C        -0.1283144333       10.3948212788       28.2725741700
  C        -0.4178409728       11.7061627475       29.0340787641
  S        -0.7079414231       14.2906761535       29.0274621091
  H         7.1019935540       15.0636291984       22.5712033480
  H         5.9241405458       15.5766047796       21.4833968660
  C         6.3080050846       13.4424962678       21.6050305554
  N         2.6021112840        7.1716613511       20.6883934040
  C         3.1517132432        7.6862615097       18.4960661188
  C         3.4566976873        9.8745151435       17.5365885181
  H         3.5040395926       11.5055978193       18.9007245557
  C         0.9267401443        9.6596534401       29.1074200053
  C        -1.4247494969        9.5847509554       28.1270979109
  C        -0.8128587762       12.0264374567       30.3944417981
  C        -1.0610922711       13.3664940192       30.5311080724
  H         7.2420978767       13.0905211343       21.9902366405
  H         5.5453993639       12.8366710642       22.1322980030
  C         6.2477733938       13.4181054271       20.0683147679
  S         2.6933163561        5.7598574111       19.8794242343
  N         3.1549686364        6.2817543026       18.4703998068
  C         3.3335650664        8.4058018426       17.2919936394
  H         3.7506565998       10.4784078107       16.6620304288
  H         0.9477872354        8.6297456243       28.7229031599
  H         0.7172255657        9.4418136280       30.1617967959
  C         2.2747826653       10.3804639906       29.1400563350
  H        -1.2767714971        8.7266552172       27.4033684698
  H        -1.5794177577        9.1022765948       29.0979227113
  C        -2.6252436025       10.3694284677       27.6466807627
  H        -0.9476238112       11.2476382206       31.1232690310
  C        -1.3409535532       14.1202541657       31.8328643457
  H         5.5510213360       14.2012460173       19.6905719058
  H         5.8346747053       12.4227198504       19.7654760853
  C         7.6451600126       13.6547415444       19.4727911651
  C         3.4912762525        7.6818250757       15.9961438248
  H         2.7499869906       10.2959187310       28.1157489307
  H         2.1239318099       11.4265477590       29.2519744176
  C         3.1601215974        9.8589632616       30.2249263259
  H        -2.4491232943       10.7296014846       26.6835394548
  H        -2.8013276649       11.3601101812       28.1422197017
  C        -3.8677663272        9.3978206533       27.6510397484
  C        -1.4578747680       15.5020436824       32.0072856825
  C        -1.5568391097       13.2584962208       33.0147340533
  H         8.0682262314       14.5695424815       19.8818937949
  H         8.2958403972       12.8296768935       19.6729188391
  C         7.5730104419       14.0233804259       17.9863939290
  H         3.4200377839        6.6045570909       15.9557994939
  C         3.7290168133        8.1398430570       14.7084367839
  H         2.9104650066        8.8695319257       30.5387172605
  H         3.1161075500       10.4362459927       31.1968683170
  C         4.6260564738        9.8497167566       29.6309980099
  H        -3.7146448556        8.8734074481       26.6727958383
  H        -3.8113184493        8.6734910332       28.5272572665
  C        -5.2534589291       10.1944223788       27.6573268884
  N        -1.3103300599       16.5522671072       31.0555307724
  C        -1.7876550343       16.0407056697       33.2135259989
  C        -2.0359135159       13.8463155304       34.2014983440
  H        -1.5290822293       12.2353976708       32.9262421730
  H         6.5956270277       14.4369766217       17.6641958355
  H         8.4138989278       14.6016750568       17.5965239586
  H         7.5958589409       13.1126490273       17.4086920650
  S         4.2549340869        9.7454197298       14.2153044556
  C         3.7446123321        7.1283254543       13.6496631054
  H         4.6391257083        9.3683835674       28.6314390420
  H         4.7524961779       10.9158902152       29.3737347280
  C         5.8832419837        9.3302997704       30.3976452962
  H        -5.1130797908       11.2344857042       27.9485852014
  H        -5.9909137934        9.6714198131       28.2245971034
  C        -5.8387343771       10.2481611300       26.2118732004
  S        -1.2499981851       17.9709829136       31.8001993864
  N        -1.7220861199       17.4370314830       33.2832064475
  C        -2.2606266997       15.3033247301       34.2933770186
  H        -2.2611242573       13.1473447882       35.0481098239
  C         4.3876093885        9.0700938035       12.5633022455
  N         4.2730803476        7.6915869392       12.5328446504
  O         3.4964744118        5.9307334958       13.7512105040
  H         5.5044631577        9.0878094748       31.4282163738
  H         6.5986417135       10.1245622300       30.5418058802
  C         6.4318458852        8.0059571769       29.7157877512
  H        -5.1356904926       10.8522237239       25.6162504717
  H        -5.9438283808        9.2161154636       25.7695438654
  C        -7.2166415187       10.9831076453       26.1986276945
  C        -2.5940912450       16.0435732594       35.4700644881
  S         5.3480631456        9.7462209560       11.2587440732
  C         4.2956076912        6.8545626767       11.3101389574
  H         6.4555680682        8.0635591483       28.6537767413
  H         7.4143039450        7.8956514188       30.0072391268
  C         5.6493012267        6.7677000708       30.2265996887
  H        -7.2467803975       11.5160268107       25.2193685294
  H        -7.2291548062       11.8638451076       26.8018273127
  C        -8.4510886898       10.0901524748       26.3023641814
  H        -2.4915159288       17.1546486025       35.4246478427
  C        -3.1515939131       15.6782883780       36.6767299136
  H         4.8622558931        7.2987912842       10.5060197839
  H         4.8624048306        5.9428585445       11.5914725332
  C         2.9165671006        6.5497111151       10.6854191689
  H         5.5408825208        6.0266538592       29.4788925795
  H         4.7014270071        7.0577350857       30.7067666376
  C         6.4982117066        6.0021867773       31.2372640595
  H        -8.3703674324        9.4108378533       27.1220864057
  H        -9.1679300960       10.8903998209       26.5354072365
  C        -8.6903402267        9.3883908871       25.0088119929
  S        -3.7155876273       14.1025965485       37.1384987610
  C        -3.2596138976       16.7810946813       37.6717420615
  H         2.2120416749        6.5522752563       11.6002401315
  H         2.6074941240        7.5086280944       10.1408533200
  H         2.7971049505        5.6849533975       10.0327471462
  H         7.1392482072        6.5356935610       31.9608223688
  H         7.1111775529        5.3385712853       30.6670613335
  H         5.8027795446        5.4350080971       31.8314333708
  H        -8.0047144214        8.5981302494       24.8330261068
  H        -8.5815233690       10.0538757386       24.1463550353
  H        -9.6334554664        9.0379407614       25.0082575904
  C        -3.9595004678       14.8608011854       38.6775411199
  N        -3.8108449651       16.2296795799       38.7519318233
  O        -3.0837033718       17.9603428259       37.4359635161
  S        -4.4318839490       13.9717120590       40.2098615271
  C        -3.6823557247       17.0456236993       40.0012499690
  H        -3.9100112193       18.1015131982       39.8090891274
  H        -4.3868647039       16.6900498953       40.7711349526
  C        -2.3065697638       16.9215701982       40.6540426667
  H        -1.5330708157       17.6118307229       40.2686887977
  H        -2.4053860727       17.0902099162       41.6898395996
  H        -1.8833199268       15.9664196457       40.4662959265
