352
 i =    73400, time =    73400.000, E =        24.8780889466
  H        10.3030728430        6.3317833965       32.6260639665
  C        11.3195097811        6.0572056110       32.4721301562
  H        11.9091423627        6.9703012713       32.6892404994
  C        11.5185757501        5.7640279476       30.9138772284
  C        11.7812500683        4.9443079177       33.4265550847
  C        10.8014955257        6.7639224843       29.9975820431
  H        12.6416975376        5.8343475920       30.6148835369
  H        11.1229454203        4.7660240306       30.7156589833
  H        11.0589064352        4.1440466708       33.2737509855
  H        12.7343812342        4.6098927436       33.0525466536
  H        11.9535896189        5.2231986987       34.4446192292
  C         9.7576930779        6.1668385241       28.9728038365
  H        11.5786546102        7.2309606971       29.4080242952
  H        10.2995035147        7.5176090984       30.6259352686
  C        10.4006620629        5.9821596113       27.6591998265
  H         9.3303046726        5.1389020455       29.1491809343
  H         8.9877164903        6.9197219319       28.9545849658
  C         9.5871023017        5.2712660503       26.6036827474
  H        11.2390255078        5.3264025428       27.9431463376
  H        10.8104355720        6.9277869026       27.2419025309
  C         8.3689753663        6.0552851167       26.0572743369
  H        10.2712566269        5.1324526794       25.7258794812
  H         9.3533818462        4.3386483861       26.9992655075
  C         7.3942516974        5.2088264628       25.2787988687
  H         7.8814786126        6.7033412140       26.8382129898
  H         8.7934785865        6.7911143009       25.3660566563
  C         7.0059080757        3.9020037846       26.0600107243
  C         7.7361994274        4.4428207676       24.0767913517
  C         6.1175981967        5.9605250931       24.7650764814
  C         7.2512640576        2.7563928173       25.2474444727
  C         6.5844741678        3.5829119982       27.3610839876
  C         7.6791876651        3.0700119343       23.9721048405
  C         8.1816278752        5.0342172013       22.8724777519
  H         5.8305914532        5.2688818269       23.9957748722
  H         6.4188947247        6.8717445649       24.1766960455
  C         5.0637627194        6.1753725202       25.9117733286
  S         7.0583701325        1.3200458915       26.1753375396
  C         6.4500584302        2.2160827214       27.5458671499
  H         6.3525469707        4.2930287534       28.0269491280
  C         7.9702244925        2.3603963984       22.7929093724
  H         8.4393523178        6.0872279467       22.8320842700
  C         8.3919235055        4.3583717389       21.6729929512
  H         4.9009282402        5.2945389958       26.5319577073
  H         5.4392225028        6.9661460109       26.5733991195
  C         3.7056343408        6.7061117672       25.4119768416
  C         6.0758657546        1.6149490234       28.8710704676
  C         8.3407274445        3.0229326653       21.5816856812
  H         7.9791085824        1.3370332348       22.7889076068
  C         8.7190140276        4.6591352702       20.4123201886
  H         3.3052959411        5.8549056877       24.8075383636
  H         3.8537508322        7.6747340095       24.9542101529
  C         2.7881066035        6.8808453243       26.6283006155
  C         6.1063801329        0.2143602460       29.1520450765
  C         5.6697082312        2.5347803432       30.0018637661
  C         8.5247235373        2.2017900743       20.3344611691
  C         8.8423503672        3.5423309195       19.5748968682
  S         8.9869120485        6.1109329213       19.5785941637
  H         2.1660623494        7.6888917502       26.2312753236
  H         3.4127087126        7.2099982647       27.4803317987
  C         1.9516443745        5.6137075318       26.8379220880
  N         6.4326745718       -0.8149515149       28.2151751162
  C         5.6636620958       -0.3245310575       30.3284944191
  C         5.2932683269        1.9532869563       31.2173416681
  H         5.6430340921        3.6070968177       29.9295792765
  C         7.2591184823        1.5318024263       19.8271365932
  C         9.8176134771        1.3682076940       20.3665332113
  C         9.1817439545        3.8550348771       18.2053264614
  C         9.4078783655        5.2301001913       18.1222261033
  H         1.2835379299        5.5987200331       25.9659305082
  H         2.5671584187        4.7248824131       26.9045676931
  C         0.9261823809        5.7032535665       27.9731403330
  S         6.3351674024       -2.2106369119       28.9397541801
  N         5.7791184130       -1.7269604282       30.3749621651
  C         5.2271765951        0.4871632910       31.4821166961
  H         4.8714589915        2.6436410836       31.9388730117
  H         7.1600557202        0.7352730369       20.4399956340
  H         7.4135162545        1.1454192308       18.8169752952
  C         5.9317726456        2.3342817667       19.8717193255
  H         9.9160342263        0.8536716426       19.3926037016
  H         9.7000447084        0.5975009622       21.1384066966
  C        11.0555870254        2.2858575906       20.7503096715
  H         9.1434156345        3.1445724507       17.4110963081
  C         9.8150013299        5.9054237671       16.8006320325
  H         0.1957739815        4.8876145970       27.8638782169
  H         0.4995085943        6.7313713394       27.9436381729
  C         1.6433082663        5.3721189544       29.3631922709
  C         4.9506711549       -0.1585363268       32.7146333435
  H         5.9733140398        3.0804658090       19.1263621894
  H         5.7026627327        2.8056777607       20.8553840627
  C         4.7925042919        1.5177464099       19.3744902581
  H        10.8909421702        2.9427239549       21.5963420982
  H        11.2493946806        2.9872315609       19.8890610314
  C        12.3846034041        1.4789232854       20.9333593545
  C         9.9955581045        7.2976562617       16.6567834723
  C        10.1365762521        5.0951578039       15.5985250955
  H         1.4620966418        4.3850309708       29.5969167805
  H         2.7223275263        5.3811983252       29.2888532229
  C         1.5241520042        6.3072809380       30.5604687582
  H         4.8231363063       -1.2688394126       32.5684497586
  C         4.6602362974        0.2697568699       33.9748090260
  H         3.9886178547        2.2232591434       19.4267755230
  H         4.4651294646        0.7528468973       20.0472095109
  C         4.7503457789        0.9203405998       18.0212886418
  H        12.2299610026        0.7911626375       21.7500302740
  H        12.4518165431        0.7760689951       20.0751134422
  C        13.6249505836        2.3091910823       21.1223041204
  N         9.6135604697        8.2835705189       17.6378645211
  C        10.2885558500        7.8945340530       15.4844504227
  C        10.4998953963        5.7148498690       14.3966734912
  H         9.9873408843        4.0364651683       15.5407403323
  H         1.3976299235        7.3142527443       30.1958769647
  H         0.5496327155        5.9405165559       31.0800339779
  H         2.3248942641        6.1775257041       31.2850860734
  S         4.3295107892        1.8688921159       34.4058315717
  C         4.6198071834       -0.7300636635       35.0818850279
  H         5.1743048785        1.7113279213       17.4461885158
  H         5.4571795747        0.1860843193       17.8442831856
  C         3.3431025511        0.4569636547       17.4683780402
  H        13.3152225027        3.0936283735       21.7723101522
  H        13.9002864172        2.7828934984       20.1957931883
  C        14.8108728257        1.4830008883       21.6630149175
  S         9.7702261912        9.7688336259       16.9712432252
  N        10.4298204376        9.2486559725       15.5409718518
  C        10.5632128742        7.1760157485       14.2817793055
  H        10.5870910269        5.0080303756       13.5716208259
  C         4.1132871251        1.2690894758       36.0294053039
  N         4.2463470980       -0.0753456407       36.1876468738
  O         4.7320288280       -1.9354607231       34.9379610801
  H         3.4576832623        0.2370339614       16.3994015690
  H         2.7433770168        1.3188177155       17.6286526429
  C         2.7286972341       -0.7148848862       18.2619809732
  H        14.5403533135        0.5595863333       22.1316976616
  H        15.4262712190        1.1215273932       20.8306639638
  C        15.7199161255        2.3641942846       22.6101479711
  C        10.8771883471        7.9972712264       13.1466052877
  S         3.7876378663        2.0914539410       37.5315082726
  C         4.2401089901       -0.7942507587       37.5048314642
  H         3.4974660637       -1.3575973264       18.7706637883
  H         2.2958804231       -0.1943699465       19.0698398172
  C         1.8163175453       -1.5979703000       17.3395074130
  H        15.2314793475        2.3635601747       23.5596404507
  H        15.7976239366        3.4451152188       22.2857784732
  C        17.1154271742        1.7479265880       22.7373570479
  H        10.3382397511        8.8991225463       13.1604871430
  C        11.5340640165        7.7073489673       11.9319378669
  H         3.5164300118       -0.4507524544       38.1823833992
  H         3.8165481701       -1.7029502906       37.1874660710
  C         5.6945562461       -0.9233755020       38.0749925095
  H         1.0246758479       -0.9790877643       16.9370710651
  H         1.3023277754       -2.3756056373       18.0491945726
  C         2.6354688268       -2.1864991843       16.1850027001
  H        17.5392387164        1.6998731503       23.7365922091
  H        16.8851734937        0.7069275638       22.6135452220
  C        18.1468809325        2.1055194831       21.6948859266
  S        12.1845398741        6.1309914162       11.6064147790
  C        11.4360074095        8.6212811285       10.7710932101
  H         5.5873707304       -0.1867744445       38.8440761282
  H         6.1224782130       -1.8166099570       38.5276331609
  H         6.3661545446       -0.6111679450       37.2884818740
  H         2.2536103325       -3.2040371158       15.9312580675
  H         3.5577253552       -2.4598642608       16.6337839389
  H         2.8958911626       -1.5474706486       15.3553963530
  H        18.7257602963        2.9807283767       21.9586376007
  H        17.6244417990        2.2167501887       20.8092869078
  H        18.8140825642        1.2989650634       21.6207025378
  C        12.4227813402        6.7430598461        9.9832649611
  N        12.1039592194        8.0489248625        9.7612090800
  O        11.0880465642        9.8149672232       10.8148716647
  S        13.0486306514        5.8354605341        8.6232845912
  C        12.2348366674        8.6857341237        8.4250705425
  H        12.3648028189        9.7306537028        8.6669503712
  H        13.0824520119        8.3552372151        7.8523826733
  C        10.9641470606        8.5579684003        7.6855369993
  H        10.1149767487        7.9377533158        8.1931237992
  H        10.5558765462        9.5576224006        7.5514339604
  H        11.2327401378        8.1227403644        6.6712122510
  H        -3.4075794729       15.2010263324       16.3861559967
  C        -3.1509832337       14.1158228108       16.2948018977
  H        -3.9919848290       13.4634349877       16.5519730562
  C        -1.9916911234       13.8250635814       17.3162470683
  C        -2.6587530175       13.8876469556       14.8679612511
  C        -2.4972966764       13.7267070362       18.7222992558
  H        -1.4462978151       12.8857354229       16.9439047192
  H        -1.2082238976       14.6310837512       17.2645980779
  H        -3.3928207126       13.5344733504       14.1938788272
  H        -2.3355697446       14.8169761953       14.4424987477
  H        -1.7124168553       13.1917805802       14.8295245552
  C        -1.3529021767       13.8831582385       19.7861377642
  H        -3.0877064635       12.8388783513       18.7846154425
  H        -3.2132098161       14.5547382968       18.8666345668
  C        -2.0770639019       13.9084619374       21.2017424064
  H        -0.5813725492       13.1321133762       19.6929051761
  H        -0.8336118325       14.7876331039       19.6876315491
  C        -1.1975965217       13.4285015007       22.3172242387
  H        -2.9221615959       13.2029887809       21.1308943558
  H        -2.5387238482       14.8835479384       21.4525169329
  C         0.1730227575       14.0383804958       22.4309362937
  H        -1.6894341201       13.4006703894       23.2605551828
  H        -1.0223776243       12.3754931024       22.0639406304
  C         1.3002923071       13.3166442989       23.1138154455
  H         0.5827948568       14.3635176655       21.4578793030
  H         0.1395984168       14.8854147091       23.0825289171
  C         1.7063718237       12.0178866744       22.4328809737
  C         0.8788670594       12.6183565769       24.3427676036
  C         2.5177531325       14.2709379641       23.3207165299
  C         1.4572580496       10.8975145958       23.2097933423
  C         2.1352950198       11.5849154019       21.1773442854
  C         0.8803281738       11.2819454472       24.4363463619
  C         0.4231045486       13.3199117301       25.4647376628
  H         2.8437027668       14.3568862577       22.3401556359
  H         2.2973198985       15.2844865720       23.6172802720
  C         3.6372865193       13.7856976865       24.2365279333
  S         1.8924687552        9.3979075881       22.4991557368
  C         2.3201730334       10.2766178003       21.0167288086
  H         2.2955151442       12.3275318998       20.4433389588
  C         0.4047553078       10.6892741984       25.5405983397
  H         0.3595574470       14.4094968317       25.4497476298
  C         0.0015064338       12.7513408632       26.6229203252
  H         3.9155818379       12.7766623007       24.0477590597
  H         3.2451123310       13.7762166359       25.2215532769
  C         4.9686937654       14.5798148423       24.2756292221
  C         2.6560024231        9.5819773937       19.7396648784
  C        -0.0437971430       11.3978317368       26.7246587685
  H         0.5375667280        9.6045395578       25.5829486985
  C        -0.4703921694       13.1243604638       27.8414831219
  H         5.6467968584       14.1636820518       25.0636832597
  H         4.7790644498       15.5953763583       24.6563991453
  C         5.7866140216       14.6821330215       22.9233563626
  C         2.5434491818        8.1707485706       19.5700158633
  C         3.3218914919       10.3287450218       18.6450328235
  C        -0.4556721932       10.6672177635       27.9175716984
  C        -0.6964443734       12.0504274257       28.6495925813
  S        -0.8672496662       14.6454836018       28.5533732382
  H         6.7437363492       15.2270726069       23.1916863653
  H         5.3211900701       15.3066163820       22.1991799987
  C         6.1344547008       13.2616136664       22.3255923784
  N         2.0871709051        7.2685288875       20.5109026826
  C         2.8844259360        7.5812495831       18.3403100312
  C         3.6408793436        9.7579406783       17.3782478785
  H         3.6708859275       11.3792326116       18.7813780341
  C         0.6051378622        9.7843560593       28.6820576164
  C        -1.8367561343       10.0172773301       27.7013576732
  C        -1.0557372238       12.4680846144       29.9293468342
  C        -1.2204151825       13.8313718606       30.0207852448
  H         6.6639038787       12.8222409933       23.1983097847
  H         5.2599453416       12.6306218078       22.3351827706
  C         7.0258505495       13.2478926728       21.1027832638
  S         2.2176854012        5.8265750543       19.9068762797
  N         2.6605827562        6.1910463739       18.3754690801
  C         3.1933256933        8.3379085692       17.1607572387
  H         4.0820975175       10.4028970007       16.6439609890
  H         0.9375058005        8.9692660500       28.0463239197
  H         0.0548685063        9.4125738096       29.5710251238
  C         1.8938140880       10.6015965951       28.9381958479
  H        -1.5753510313        9.2080515218       27.0499417043
  H        -2.1587829327        9.6017844844       28.6892797161
  C        -2.8486198920       10.9124091704       27.0321782434
  H        -1.1871159399       11.7425448665       30.6780891216
  C        -1.5332724388       14.5566950931       31.2999474350
  H         7.5218818358       12.2800773968       20.9587180990
  H         7.7702730134       14.0258139780       21.2483104550
  C         6.1927484519       13.5587066799       19.8243523582
  C         3.2998645563        7.6330138378       15.8954689070
  H         2.1843619045       11.1463593056       27.9754526988
  H         1.6213603946       11.3042689356       29.6922467431
  C         2.9331442942        9.6520682912       29.5006108730
  H        -2.4684642013       11.3301386785       26.1609148864
  H        -2.9619299153       11.6539619651       27.7916628223
  C        -4.1461655187       10.2199525130       26.9296221082
  C        -1.5688159860       15.9455060090       31.4066486854
  C        -1.8984291473       13.7507971252       32.4925141020
  H         5.3872799076       12.8509594793       19.8045307622
  H         5.5150106487       14.4055749728       20.0531021727
  C         6.9716617099       13.3805773143       18.5398701696
  H         3.2837067288        6.5658593413       15.9586526365
  C         3.5866869729        8.0684067665       14.6355450680
  H         3.3173796933        8.9482386510       28.7804101729
  H         2.3821117108        9.1099452487       30.2550713868
  C         4.0444621177       10.2631420022       30.2948476694
  H        -4.0440137271        9.1881230707       26.4214452274
  H        -4.4285907484       10.1303431308       27.9302640418
  C        -5.1701200109       11.0326079096       26.1864569754
  N        -1.1044480621       16.8634905671       30.3976046274
  C        -1.8338666650       16.5304939175       32.6277929267
  C        -2.0699455095       14.3745534820       33.7183888535
  H        -1.9615149053       12.6925832387       32.4128049448
  H         6.2379871529       13.1841425118       17.7531610239
  H         7.5719628410       14.2870956362       18.1881020218
  H         7.6810834963       12.5038382785       18.5208043886
  S         3.8760969992        9.6909645481       14.1887463375
  C         3.8371683314        7.0415023540       13.5769295376
  H         4.3749013818       11.1416835646       29.7692596057
  H         3.6704605465       10.6799018419       31.2083983670
  C         5.2794350958        9.3804277660       30.4144067750
  H        -4.8304051193       11.6928863585       25.4177822835
  H        -5.5552166457       11.7592253927       26.9798653601
  C        -6.3121882408       10.2926336574       25.6267253124
  S        -1.1618203154       18.3596570224       31.0336836272
  N        -1.6995726831       17.9105648217       32.5437169442
  C        -2.0154495738       15.8255008366       33.8071673848
  H        -2.2265520971       13.7148107491       34.5220433585
  C         4.4101739018        9.0622787084       12.6283010079
  N         4.3678263821        7.7001794436       12.5318468494
  O         3.5770247039        5.8060729036       13.7642936800
  H         5.9344727651        9.6264940345       31.1873218642
  H         5.8250565219        9.5775804904       29.5390346906
  C         5.0757439254        7.8960223471       30.5968234830
  H        -5.9529209370        9.6161129682       24.8517255670
  H        -6.8989633774        9.7193127251       26.3486920909
  C        -7.3691210113       11.2558658094       24.9454829235
  C        -2.3428893628       16.5477030412       35.0181401777
  S         4.7745288410        9.9649946763       11.1911695891
  C         4.6218941840        7.0534895241       11.2815636708
  H         4.7496374212        7.7540489987       31.6272412288
  H         4.2006917971        7.5253682369       30.1112158208
  C         6.2833701646        7.0065000891       30.2838190565
  H        -6.8304818855       11.7703614023       24.0859072991
  H        -7.5842125336       12.0328426062       25.6316339233
  C        -8.6501524921       10.6378132083       24.5479173094
  H        -2.3371168939       17.6039844091       34.8613597872
  C        -2.7887376468       16.2038850443       36.2524633219
  H         5.5997222071        7.3978482943       10.9071212673
  H         4.7625901145        6.0196740380       11.6817228753
  C         3.3985141089        7.0987124094       10.3384460056
  H         7.0536272765        7.5401870633       29.7775283143
  H         5.9718933473        6.1786677185       29.7237553490
  C         6.9508538514        6.5914561750       31.5403407397
  H        -9.0314712915       11.0132321199       23.5984698077
  H        -8.5179951345        9.5692272662       24.4753006592
  C        -9.6168287212       10.7563813634       25.7517969141
  S        -3.2543443388       14.6329814913       36.8119001053
  C        -2.9614592585       17.2735345692       37.2979217964
  H         2.4675704781        7.4594100205       10.9504603949
  H         3.5402784142        7.6662972183        9.4183900899
  H         3.1275827718        6.0656456041       10.0810585076
  H         8.0456501464        6.6269548263       31.3979458747
  H         6.6910090758        5.5970198111       31.8341711763
  H         6.9085930292        7.2386106337       32.3903656170
  H        -9.0481520922       10.7931536705       26.6881772081
  H       -10.3759637845        9.9660460136       25.9400973288
  H        -9.9933675898       11.7915633903       25.7843082559
  C        -3.5181171087       15.4147198391       38.4042248605
  N        -3.4318723507       16.7414006664       38.3932412641
  O        -2.6752569488       18.4575154454       37.0501197818
  S        -4.3891397722       14.7337060271       39.8118068855
  C        -3.5805494445       17.6148070243       39.5555023478
  H        -3.7824071686       18.7050400503       39.2730734876
  H        -4.4184557711       17.3008652937       40.1707204409
  C        -2.3062313677       17.5840811414       40.4133968753
  H        -2.4955867421       18.3244301298       41.1570019937
  H        -2.1197215373       16.6971056931       40.9818688839
  H        -1.3314491190       17.9517597996       39.9729378834
