352
 i =     9400, time =     9400.000, E =        23.6970981118
  H        11.7733902101        6.7544917930       32.4156462307
  C        11.3783535976        5.7412855663       32.4151821405
  H        12.1945688506        5.0762798830       32.0701296001
  C        10.2777813375        5.9608358214       31.3424931551
  C        11.0289933322        5.5214396421       33.9259083727
  C        10.8498709686        5.6042987938       29.9434128055
  H         9.4591427207        5.2059222962       31.4889417201
  H        10.0336285400        7.0271811693       31.3441925741
  H        10.2002463465        6.1706411185       34.1702451974
  H        10.7605340669        4.5166096028       34.1892292797
  H        11.8236358522        5.8015112926       34.5949576971
  C         9.7393158458        5.4017446092       28.9181634066
  H        11.5505814301        4.7521514865       30.0236111078
  H        11.4360718802        6.4323149948       29.5839916879
  C        10.3496067460        5.3274999042       27.4516107460
  H         9.2230637829        4.4428187261       29.0495632159
  H         8.9858976283        6.1771864146       29.0620426156
  C         9.3798146091        4.7448612917       26.4316721332
  H        11.2644997019        4.7787090073       27.5192973500
  H        10.5841613990        6.3694720507       27.0490094427
  C         8.1404933085        5.6549557390       26.2574979581
  H         9.9360394965        4.5893569372       25.5404471046
  H         9.2346637403        3.7453043739       26.7662269324
  C         7.0262646957        5.0050327700       25.3405359461
  H         7.6656215112        5.9384244876       27.1768353968
  H         8.2856247130        6.6252753303       25.7227816997
  C         6.7212048433        3.6951018678       25.9966956377
  C         7.5258552116        4.2485213276       24.1509758167
  C         5.7761567167        5.9086757926       25.1825248174
  C         7.0290540777        2.5464473681       25.2630286832
  C         6.3247801234        3.3167592804       27.2727207579
  C         7.5518900710        2.8757765054       24.0552548533
  C         8.0412631292        4.8917993463       23.0053490482
  H         5.9646386878        6.8040770829       24.6365479197
  H         5.6090316839        6.2587459338       26.2010673841
  C         4.5311731152        5.1146545942       24.7501536567
  S         6.7990328131        1.0814939212       26.0680812478
  C         6.2641687669        1.9968008724       27.4468132807
  H         6.1078366930        4.1087959027       27.9765435138
  C         8.1089242076        2.3064627464       22.9616616367
  H         7.8642892101        5.9125860616       22.9611837003
  C         8.5891212160        4.2723299622       21.9229163150
  H         4.6589062111        4.6353341635       23.8297738498
  H         4.4120602509        4.3840289469       25.4977893165
  C         3.2809301750        5.9637036879       24.8679219700
  C         5.8831235717        1.2919671365       28.7854708465
  C         8.6379066487        2.9532087396       21.8435307060
  H         8.1614847261        1.1422673114       22.8827467676
  C         9.1099446822        4.5909002492       20.6987268496
  H         2.5270851028        5.5599338245       24.1065531558
  H         3.5303094477        6.8996322981       24.5068492258
  C         2.5827368977        6.1968420151       26.2363883568
  C         5.9733053728       -0.0948721234       29.1099435427
  C         5.3220688452        2.1999935935       29.7988724846
  C         9.2919659299        2.1995253287       20.6728182124
  C         9.5668078629        3.5514914348       19.9711994227
  S         9.2235149988        6.1028687537       19.9223131025
  H         1.7228482477        6.8556883391       26.0735975031
  H         3.2879777684        6.6658354615       27.0332556331
  C         1.8619264520        5.0092408125       26.8770020917
  N         6.4042725773       -1.1369940347       28.2193687580
  C         5.6675085732       -0.6075301547       30.3398123971
  C         4.9870204975        1.6268183634       31.0153288509
  H         5.0826864932        3.2559131666       29.6950387826
  C         8.2408774621        1.3778418386       19.8176612189
  C        10.6035003664        1.4474372019       21.0851626831
  C        10.0991710883        3.9309479540       18.7976479695
  C         9.8580878724        5.2727187325       18.5615096276
  H         1.2736512195        4.5935853742       25.9874898658
  H         2.6452325160        4.3367627881       27.1685765268
  C         0.9444616277        5.4526577172       28.0485335598
  S         6.4360277754       -2.5321591667       29.0301619485
  N         5.9022569406       -1.9921450004       30.4755337745
  C         5.1521487651        0.1782634656       31.3701682746
  H         4.5516028926        2.3486205214       31.7098578421
  H         8.0355817653        0.4814645314       20.3419109198
  H         8.5743485690        1.0435527119       18.8369727278
  C         6.8573948664        2.1210343557       19.5241751017
  H        10.9339674964        0.9470420672       20.1789077745
  H        10.3786294966        0.7819307052       21.8839546729
  C        11.6683157942        2.3632096688       21.5011678418
  H        10.4139413485        3.2238066489       18.1188693649
  C        10.0947310789        6.0435056027       17.2599786351
  H         0.2799923866        4.6716281895       28.3280472274
  H         0.2486210688        6.1985749572       27.8229739209
  C         1.8418887888        5.7445334346       29.2449906425
  C         4.9109008949       -0.3378668501       32.6496642213
  H         6.9533157393        3.0244869867       18.9395379205
  H         6.4942825991        2.5342977921       20.4776366750
  C         5.8459392337        1.1396572651       18.8777361739
  H        11.4444940291        2.9757945199       22.3800599586
  H        11.8633769648        3.0743017534       20.7492892607
  C        13.1123129853        1.8872542885       21.6369745628
  C        10.0295269384        7.4524823032       17.0799865509
  C        10.2929477981        5.3282546373       15.9303445851
  H         2.5318004484        5.0169766135       29.4175646756
  H         2.4434038276        6.6355499848       29.0450087712
  C         1.0272358283        5.9148514573       30.5512048238
  H         5.0576067974       -1.3998661753       32.6850899547
  C         4.5259486361        0.2061690123       33.8493719476
  H         5.7628039491        0.4575462037       19.7144196647
  H         6.3216419419        0.5725066601       18.0394699229
  C         4.4838107092        1.7904445256       18.6369232268
  H        13.1820832177        1.0642417397       22.3646482585
  H        13.3627827719        1.4466653662       20.6631922995
  C        14.3180716720        2.7035535123       21.8846850872
  N         9.8655410893        8.3865519559       18.1057559773
  C        10.2359064457        8.0877858264       15.8768664057
  C        10.3882728537        5.9500243067       14.6774691758
  H        10.3199886597        4.2406305296       15.9860642236
  H         1.2746457953        6.8267941905       31.1251396242
  H        -0.0815424860        5.6916580865       30.4616892250
  H         1.3102026103        5.1979052821       31.2973716823
  S         4.2962840139        1.9127189664       34.2553862505
  C         4.4514655228       -0.7792574411       34.9957038805
  H         4.4527367613        2.6334329189       19.3111700086
  H         4.3541087979        2.2287564081       17.6916079580
  C         3.3122202175        0.8819456219       18.9977386149
  H        14.1870695958        3.7306166237       21.6927221473
  H        15.0210675509        2.4379520234       21.1182290957
  C        14.8660761186        2.4703036651       23.3083313772
  S         9.8208981515        9.8720160849       17.4115751426
  N        10.2790846941        9.5052182454       15.9296164203
  C        10.4246931811        7.4861077547       14.6032929032
  H        10.4775644508        5.3810504558       13.7941378682
  C         4.0107989883        1.2881128936       35.8811054617
  N         4.1821526274       -0.1188485293       36.1378198500
  O         4.7076895318       -1.9527265622       34.8755837860
  H         2.5323962060        1.3092484000       19.7226291075
  H         3.7650740188       -0.0540834078       19.4611255629
  C         2.5699943110        0.4206146413       17.7466501372
  H        15.4029169998        3.3629994108       23.5850735388
  H        14.1992647236        2.4070605766       24.1186539240
  C        15.9288704799        1.3645154666       23.4276279395
  C        10.7130419633        8.2846809943       13.4663347617
  S         3.7628349471        2.2735611162       37.3329254554
  C         4.3141322841       -0.8369730448       37.3993072186
  H         1.4870471495        0.3830452871       17.9777071625
  H         2.7074092779        1.2041931386       16.9412850832
  C         2.9597299432       -0.9373926346       17.1804349775
  H        15.6970771761        0.7132350587       22.6274923215
  H        15.7963715058        0.6746492670       24.3570736525
  C        17.5067892451        1.8266245519       23.3579932430
  H        10.6095050079        9.3329665783       13.5486939713
  C        11.3111141457        7.9132134910       12.3169635470
  H         3.5675779477       -0.3704265795       38.1312638516
  H         4.0417364349       -1.8492353258       37.1688326768
  C         5.6458261351       -0.7689802207       38.0054493777
  H         3.9503128185       -1.0794812006       16.8145989117
  H         2.4322624227       -1.1782097119       16.2609806468
  C         2.7782718880       -2.0206098592       18.1908543804
  H        17.7636140178        2.5127430398       24.1397915442
  H        18.1718086017        0.9759052910       23.4890752369
  C        17.8017532147        2.5112456876       22.0200280557
  S        11.7690877420        6.3150982286       11.8032609824
  C        11.4824552542        9.0012093479       11.2970370688
  H         5.7558132095        0.2358352909       38.3537844513
  H         5.8290371783       -1.4322721990       38.7995531077
  H         6.3544885601       -0.8714222710       37.2189106083
  H         3.6341822338       -2.0362640123       18.9275468854
  H         2.8578966271       -2.9208778764       17.5149455763
  H         1.7874350485       -1.8921876327       18.6515490604
  H        18.8100431804        2.8990151277       22.1217882029
  H        17.1445156830        3.3651152088       21.8122292921
  H        17.8376379965        1.6873253793       21.3334202378
  C        12.1441883065        7.0972984690       10.3119553686
  N        12.1935359838        8.4665209798       10.2693661729
  O        10.9657275970       10.1154003714       11.3051315250
  S        13.0749828946        6.3952139885        9.0271997023
  C        12.3572804694        9.2734975560        9.0562672972
  H        12.4778181299       10.2977091646        9.2608812640
  H        13.3427734043        9.1645080804        8.5452720679
  C        11.1363778766        9.1539756179        8.0955402718
  H        11.1983507556        8.1202939874        7.5521034693
  H        10.1060920770        9.3237669053        8.4816542800
  H        11.1599523784        9.8540179079        7.1973570368
  H        -3.7601822777       14.8870089478       16.1144830030
  C        -3.3793674743       13.9050278500       16.2389858305
  H        -4.1229992192       13.2878798051       16.7079475286
  C        -2.1687700913       13.9357698462       17.1398710219
  C        -3.0966404111       13.4123570490       14.8313401627
  C        -2.6107556770       13.8061851787       18.6212148079
  H        -1.4076417936       13.1754664560       16.9439994990
  H        -1.7172312471       14.9292274074       16.9960843457
  H        -2.7648527325       12.4151033829       14.9114898647
  H        -4.0412189062       13.2832973867       14.2235187286
  H        -2.3716402831       14.1272089767       14.3308446526
  C        -1.5375724916       14.1600435869       19.5800132346
  H        -2.9877072782       12.7773816634       18.6834342719
  H        -3.5224812642       14.3948777042       18.7467142688
  C        -2.0474832968       13.8731920484       21.0317318082
  H        -0.6745283848       13.5937030377       19.2688747961
  H        -1.2460576755       15.1771765409       19.5668553563
  C        -1.1067251748       13.0503624209       21.9201247131
  H        -3.0037852279       13.3616765199       21.0563415615
  H        -2.3582855466       14.7414343902       21.4999953620
  C         0.0502404813       13.8383665614       22.4999429317
  H        -1.6382643486       12.7030988860       22.7910265596
  H        -0.7963572938       12.1799321168       21.3407935626
  C         1.1582586146       13.0309145973       23.2863141068
  H         0.5436993739       14.4720408808       21.7267351819
  H        -0.2952428419       14.5538633552       23.2205944135
  C         1.4320927037       11.6006425534       22.6574229709
  C         0.7089154654       12.2969300302       24.5783910173
  C         2.5075200497       13.7808900173       23.4404501933
  C         1.0724710415       10.4948385510       23.4356924036
  C         1.9795326659       11.1844539244       21.3568700934
  C         0.6605626277       10.9141134467       24.6344365118
  C         0.1853070577       13.0029553289       25.6396832802
  H         2.8227891069       14.3203076450       22.5611821127
  H         2.2393176909       14.6302019542       24.1112110435
  C         3.7125506686       12.9875046730       23.9424020979
  S         1.3915308173        9.0538471181       22.5954710994
  C         1.9630260976        9.8691021498       21.1995065088
  H         2.2037674548       12.0037010599       20.7388870660
  C         0.1968975527       10.3268631554       25.7616451253
  H         0.0703194528       14.0468283390       25.6582824314
  C        -0.2171775388       12.3769971731       26.7846689682
  H         3.8231240851       12.0853431843       23.3818246248
  H         3.5940758186       12.7796964697       24.9455414747
  C         5.1468030641       13.6923977280       23.9328489478
  C         2.3953205319        9.0978701312       19.9517368394
  C        -0.2893008300       11.0245768193       26.8673490365
  H         0.2603517340        9.2803174891       25.8588578631
  C        -0.5201965410       12.7756260105       28.0880130091
  H         5.8299141476       13.1907067952       24.6194308082
  H         5.0144955464       14.6773769479       24.4248175599
  C         5.7478098544       13.7638135450       22.5109985906
  C         2.2797029293        7.6956916995       19.8006484742
  C         2.9181085949        9.8395272643       18.7841226644
  C        -0.6302230051       10.3005071473       28.1189708785
  C        -0.8830262283       11.6537262832       28.8025474149
  S        -0.9095512551       14.2128510879       28.9464702472
  H         6.3870485372       14.6756488331       22.4346343875
  H         4.9776648542       13.9336210291       21.7533052799
  C         6.4025790802       12.4982442964       22.0116055192
  N         1.8918775419        6.7202700177       20.7446785329
  C         2.6248525849        7.0572276839       18.5632019072
  C         3.3148280296        9.1856716915       17.6403859985
  H         2.8970314943       10.9661144361       18.8037964045
  C         0.4846404750        9.4734686579       28.8022427676
  C        -1.9380739943        9.4249190679       28.0238855547
  C        -1.2097996042       11.9922009957       30.1468026485
  C        -1.2597122460       13.3406821027       30.3429965124
  H         7.1886644880       12.1790478524       22.7026392186
  H         5.6493781840       11.7619178064       21.8185027082
  C         7.1638367300       12.8919746490       20.7395073236
  S         1.9039294908        5.2093702006       20.0258479363
  N         2.4416495841        5.6642928026       18.5845482474
  C         3.0432754133        7.7237552970       17.4217956291
  H         3.7893494640        9.8315412424       16.8442574546
  H         0.8489282592        8.6172229299       28.1898095066
  H         0.0621466267        9.0009281620       29.7028236223
  C         1.6491025215       10.4049190948       29.3281946026
  H        -1.8694373549        8.5280798672       27.4212008888
  H        -2.1618886716        9.0302742483       29.0456655363
  C        -3.1455378020       10.2803696516       27.5874766356
  H        -1.4284051684       11.2478718499       30.8777411258
  C        -1.6137318590       14.0945283251       31.6058115346
  H         7.7272717513       11.9782701815       20.6405313909
  H         7.7050866585       13.8067492832       20.8684330858
  C         6.3191866370       12.9864149073       19.5182075647
  C         3.2903803301        6.9233630372       16.2690014451
  H         1.9792332694       11.0732088379       28.4885539540
  H         1.2717080529       10.8889221361       30.2334825977
  C         2.7799313246        9.4924426047       29.8506546675
  H        -2.9820830873       10.8388725356       26.6813872052
  H        -3.5000209248       11.1337528133       28.2703086133
  C        -4.2892361030        9.2898102772       27.2003563292
  C        -1.7453642023       15.4530600524       31.7815713560
  C        -1.7598264363       13.2084749560       32.8273856352
  H         5.5440517854       12.1846390912       19.6335900152
  H         5.7273899341       13.9374994948       19.3286230751
  C         7.1448144277       12.8051767842       18.2114207551
  H         3.1925329243        5.9347337077       16.4195185597
  C         3.5519411029        7.2625999545       14.9500435033
  H         3.4234067871        9.1903301101       29.0129892079
  H         2.4236758877        8.5825124008       30.3209520074
  C         3.5776226168       10.2901280010       30.9104383270
  H        -4.0504293464        8.3380611408       26.7919865506
  H        -4.8390908358        9.0623062152       28.1084302078
  C        -5.3288412902        9.8492074776       26.2564505551
  N        -1.5071682124       16.4965355659       30.8512897566
  C        -2.1128220264       15.9742294460       33.0256142159
  C        -2.1406974655       13.7028154351       34.0780598558
  H        -1.6640271577       12.2195568108       32.8122605799
  H         7.8667069448       11.9991620376       18.3787077687
  H         6.4620016013       12.6538765178       17.3855127966
  H         7.5943032641       13.7296472315       18.0182429945
  S         3.8049847622        8.8513974246       14.3077737212
  C         3.5987064504        6.2172624261       13.8336147688
  H         3.8501352328       11.1821955144       30.5387546903
  H         2.9541612736       10.5168900411       31.7722191338
  C         4.9214535514        9.6931405262       31.1927495925
  H        -5.8595870673        9.0014233895       25.7870122531
  H        -4.9669696810       10.4299626269       25.4043211030
  C        -6.2971672254       10.6366507862       27.0725269743
  S        -1.6716410051       17.9690128257       31.6543319879
  N        -2.0265689618       17.3779371754       33.0911405684
  C        -2.3825195858       15.1870273690       34.2214702541
  H        -2.3210855308       13.0738778977       34.9160637513
  C         4.0049547854        8.0845907729       12.6835936106
  N         3.9125390326        6.7675743744       12.6243507494
  O         3.2499484829        5.0189092461       13.9479236501
  H         5.5772619089       10.3445999306       31.7729920239
  H         5.4607403944        9.5230443701       30.2546202765
  C         4.8685388990        8.4114546196       32.0859212111
  H        -6.6100285726       10.1750794767       28.0499112464
  H        -5.7331395529       11.4665254699       27.3769235645
  C        -7.5080346709       10.8743857535       26.2240763111
  C        -2.6596323032       15.9289275434       35.4091594801
  S         4.2450201307        8.9808153331       11.1890593715
  C         3.7032509638        6.1090145475       11.3538975796
  H         5.5441350528        8.3365263678       32.9693186662
  H         3.8133636274        8.4062171603       32.3225438140
  C         5.1125794756        7.1134419544       31.2134063785
  H        -7.2471765788       11.2098862773       25.2117565981
  H        -8.0128623505       11.7470013617       26.5995145817
  C        -8.4103964355        9.5838089878       26.2363372559
  H        -2.4479271123       16.9711448607       35.5039891688
  C        -3.2494719892       15.5180574490       36.5656733037
  H         4.3637818670        6.5004458664       10.5639748635
  H         3.9387543118        5.1220916906       11.6453102633
  C         2.2209874478        6.2340688757       10.9761270887
  H         4.9430360422        7.1520124542       30.1688667192
  H         4.3790005184        6.3904618690       31.5364104187
  C         6.5025670231        6.6106392750       31.2907384644
  H        -8.3511695295        9.1979968125       25.2467883969
  H        -8.0752312451        8.8065680939       26.8862021397
  C        -9.8150429043       10.0005110641       26.4528978376
  S        -4.1061206461       14.0391626297       36.9308504241
  C        -3.2407596539       16.4676741392       37.7301470673
  H         2.1554193154        5.8029572969        9.9731602846
  H         1.6335955493        5.7204148754       11.7193278239
  H         1.8265164691        7.2390357387       10.7975874645
  H         6.9254138951        6.6551526981       32.3047175244
  H         7.2190918463        7.2061153444       30.7606913341
  H         6.5527072412        5.6275657681       30.8523399983
  H       -10.2108296139       10.4738806005       25.5524549523
  H        -9.9350735754       10.7137793565       27.2347042938
  H       -10.4263521408        9.2036723089       26.6505646777
  C        -4.2817676594       14.7003853710       38.5891201941
  N        -3.9104465402       15.9540966176       38.7829043888
  O        -2.9367447297       17.6830012388       37.6136494950
  S        -4.9181061275       13.7970230029       39.9940925571
  C        -4.0768172281       16.8128071709       39.9181592269
  H        -4.3446734615       17.9219455598       39.7898370482
  H        -4.8041913925       16.3799059904       40.5744531619
  C        -2.8361571388       16.7767007736       40.7753389769
  H        -2.1583770667       17.5552404779       40.5528106571
  H        -3.0047153286       16.7696897280       41.8441632380
  H        -2.4002661624       15.8075135432       40.5670992423
