352
 i =    94300, time =    94300.000, E =        25.4144168470
  H         9.6873805691        6.8453215810       32.0259108467
  C        10.7155983718        6.6334757727       32.2948879571
  H        11.0715781480        7.6431419848       32.5467223321
  C        11.7570340382        6.1587125877       31.2700048229
  C        10.8356101052        5.7466267540       33.5764019856
  C        11.1179024098        5.2487542220       30.1863960727
  H        12.3984862015        6.9446809232       30.8238220041
  H        12.5927190793        5.6043280091       31.8432763599
  H        11.7951560114        5.7394406554       34.0333745490
  H        10.1601998125        6.1950346344       34.2812311619
  H        10.6067090384        4.7220263605       33.3781799138
  C        10.1414658593        5.9371135910       29.1964056800
  H        10.5037089320        4.6046278494       30.7827390952
  H        11.8268933007        4.6041128012       29.6598457613
  C        10.6251925262        6.0411044007       27.7784050152
  H         9.2249777780        5.3092838356       29.0705027279
  H         9.7545467978        6.8465306228       29.6064603248
  C         9.8182215942        5.3366379910       26.6931080156
  H        11.6595527048        5.6308456942       27.6962433776
  H        10.6422786285        7.0196822934       27.3534992285
  C         8.5897438551        6.0855179134       26.2027507061
  H        10.3826418594        4.9334250409       25.9160733934
  H         9.4723120209        4.4858082623       27.1165948594
  C         7.5305053373        5.2426532121       25.3846888443
  H         8.0546173391        6.4402173736       27.0523996933
  H         8.7486472943        6.9843221560       25.5993750465
  C         7.1705869553        3.8300283498       26.0704458402
  C         8.1281726906        4.5218725690       24.2106767968
  C         6.3077869589        6.0583381747       24.9936840956
  C         7.6408121835        2.7514022437       25.2995691874
  C         6.6839294169        3.4239474919       27.3713380401
  C         8.0851703105        3.1564354899       24.0965571301
  C         8.5071600805        5.1956186158       23.0534812923
  H         5.8833970278        5.7096776761       24.1586608240
  H         6.6526081305        7.0791871442       24.7758008037
  C         5.2069828615        6.3020620210       26.0589479228
  S         7.2811461032        1.2434747586       26.0282365890
  C         6.6114426199        2.0575801994       27.4395571931
  H         6.3466046287        4.1576280380       28.0617093422
  C         8.5495519033        2.5550782169       22.9765050590
  H         8.4690705420        6.3014420885       23.1289258101
  C         8.9475405024        4.6164053164       21.9410557397
  H         5.0871327871        5.4574319728       26.7165262732
  H         5.5015973551        7.0884487100       26.6415977806
  C         3.8024973038        6.4670338299       25.4328094386
  C         6.2429548706        1.3977602857       28.7148572969
  C         8.9655126142        3.2676770929       21.8431873272
  H         8.5401961266        1.5111418244       22.8786340244
  C         9.4257396807        5.0580519548       20.7151307889
  H         3.5954747485        5.4595728893       24.8229447175
  H         3.7558535097        7.2633157206       24.6762515870
  C         2.7032582637        6.7303650299       26.5335297583
  C         6.3944318361        0.0552601345       29.0154984161
  C         5.7492780294        2.2198061380       29.8684449479
  C         9.4681274584        2.6235699636       20.6071212457
  C         9.7197481747        4.0093242527       19.8894174423
  S         9.6249076408        6.5654160143       19.9443020431
  H         1.9000417306        7.3373651837       26.1877909762
  H         3.1641466125        7.3922374056       27.2398026322
  C         2.1311608276        5.4949555337       27.2081328946
  N         6.9246777694       -0.8792249399       28.1632544207
  C         6.0542533141       -0.5241823257       30.2242205239
  C         5.3521246871        1.5774622070       31.0365958939
  H         5.5605787648        3.2737133063       29.7506505599
  C         8.2940264650        1.8437610794       19.9499473255
  C        10.6770084292        1.7367087543       20.7337740064
  C        10.0752597905        4.3498523107       18.5617573619
  C        10.0206275475        5.7364262463       18.4303482209
  H         1.8610907583        4.8116563927       26.4375213036
  H         2.8089647660        4.9858020584       27.8727604287
  C         0.9248648959        5.8451684049       28.0843951043
  S         6.9879538057       -2.3217907123       28.8933314149
  N         6.2808589976       -1.9036760533       30.2415859983
  C         5.4648045836        0.1462752945       31.3063492875
  H         4.6937289132        2.0592203897       31.7099493027
  H         8.0313453352        1.1456202550       20.6833785988
  H         8.6146377243        1.2301505940       19.0582201856
  C         7.0609503654        2.6754735450       19.4862080935
  H        10.9551160984        1.2440046392       19.7785572079
  H        10.4416049380        0.9554731415       21.4251311921
  C        11.9222949333        2.5280834613       21.2292960369
  H        10.1956489163        3.6309463346       17.7509524445
  C        10.3380996930        6.5709221990       17.2605567104
  H         0.4502112876        4.9365346918       28.2974814103
  H         0.1479320717        6.4668628004       27.6138587339
  C         1.2284003185        6.5267160722       29.3886627955
  C         4.9969370241       -0.5309204759       32.5069603822
  H         7.3604929790        3.1218633296       18.5140891537
  H         6.8612132126        3.4885525859       20.0673428483
  C         5.8179726010        1.8015238801       19.4056794249
  H        11.6579142770        2.9990070610       22.1686660079
  H        12.2747885543        3.3208340276       20.6033063092
  C        13.0624530273        1.5924678085       21.4919867494
  C        10.3518623818        7.9847294159       17.2016851009
  C        10.7419549351        5.7918973586       16.0554778725
  H         1.9866624123        7.3081089538       29.2519118891
  H         0.3203506205        6.9940558113       29.7475780599
  C         1.7621782839        5.6005285681       30.4560995770
  H         5.3068129865       -1.5467902716       32.3997481195
  C         4.7806431246       -0.1210497113       33.7852889056
  H         5.2329937156        1.6521061513       20.2950864642
  H         6.2328980120        0.7887397769       19.2025995458
  C         4.8850958358        2.2488999594       18.2169937290
  H        12.8707679664        0.9293974667       22.2737271452
  H        13.3450140041        0.9768509927       20.6524056362
  C        14.3220317507        2.3736409029       21.9022846101
  N        10.1394294278        8.9132845310       18.2224914139
  C        10.6321936644        8.6589612640       16.0208850684
  C        11.0536025893        6.4505469919       14.8969832438
  H        10.7842298149        4.6586353736       16.0793527361
  H         2.5655205990        6.0474216581       31.0612318853
  H         0.9672604920        5.6876372855       31.2548730732
  H         2.0654947086        4.6255491469       30.0964199933
  S         4.4336087686        1.4889919961       34.2908967136
  C         4.8565960529       -1.1271993805       34.8632239255
  H         4.4294933025        3.2335641816       18.4263755850
  H         5.3689380082        2.4471121826       17.2772636970
  C         3.7094442656        1.3412781642       18.0842626861
  H        14.1339634918        3.4145149706       22.2511071233
  H        14.9177351373        2.4691944290       20.9712206846
  C        15.0697851163        1.5865310955       22.9512944116
  S         9.9658488573       10.4043399689       17.5791628537
  N        10.5603115727       10.0353908755       16.0937591832
  C        11.0026601321        7.9334978134       14.8301951512
  H        11.3847113703        5.8822375719       13.9779178944
  C         4.3286332712        0.8108984789       35.9443617739
  N         4.5061396271       -0.5478448947       36.0098640782
  O         5.0979804464       -2.3366011530       34.7532898005
  H         3.2894606987        1.6739871468       17.1199575742
  H         2.9526349096        1.5430533441       18.7791937293
  C         4.0590141436       -0.1393347886       18.1597263385
  H        14.2582074771        1.3671651055       23.6665326288
  H        15.4648258857        0.7750206836       22.4426939345
  C        16.2195081048        2.4697632421       23.4359095563
  C        11.2801756358        8.8111598181       13.6757838767
  S         4.0860841816        1.7378598751       37.3983851340
  C         4.5435881235       -1.3208377920       37.2956177264
  H         4.9856105407       -0.5215221430       17.7440149910
  H         4.1279926234       -0.3781911702       19.2952613645
  C         2.9654531160       -0.9661148894       17.5019558457
  H        16.0256037581        2.9043461598       24.3811014090
  H        16.4373388606        3.3553546397       22.7456789416
  C        17.5647957809        1.7192943171       23.6110616178
  H        11.0764644274        9.8197104930       13.8373343300
  C        11.6653568838        8.5746511056       12.4350073174
  H         3.9151296607       -0.8373379586       37.9817549313
  H         3.9503268797       -2.2067492940       37.0391424093
  C         5.9785929850       -1.4616194806       37.8990270223
  H         2.9307842230       -0.9564929186       16.4984938010
  H         2.0023391367       -0.7901871696       17.8703671077
  C         3.2787181917       -2.3920064395       17.7972584673
  H        18.2438981755        2.4078437661       24.1581526050
  H        17.4708205604        0.7841961900       24.1103938003
  C        18.3742689909        1.4917256875       22.3287700929
  S        12.2473150838        7.0850964385       11.7918366615
  C        11.7003518217        9.7438468048       11.5520372189
  H         5.8664244383       -2.1648252294       38.7169025053
  H         6.6793984141       -1.8997969815       37.1822897272
  H         6.3816468470       -0.5718677222       38.1873873626
  H         2.3498844908       -2.9191371724       17.6699988024
  H         3.8110944454       -2.5853096018       18.7197562966
  H         3.9115866032       -2.5619984745       16.9468192311
  H        19.4332690976        1.2478274557       22.5449728647
  H        18.3059502510        2.3411607516       21.6166818770
  H        18.0104635478        0.6491937931       21.7785382430
  C        12.6982008224        8.1148888012       10.4085952632
  N        12.2923585884        9.3677816219       10.3943928070
  O        11.2793857463       10.8833956317       11.8179393420
  S        13.3085731003        7.4574311583        8.8652032072
  C        12.4306337863       10.3536328080        9.2831323284
  H        12.8349368909       11.2303560129        9.8151889383
  H        13.1513046637       10.0094890454        8.4870433951
  C        11.0605567529       10.5831048938        8.6705700084
  H        11.0741480790       11.2694566852        7.8023537086
  H        10.7794630607        9.6658388772        8.1465824345
  H        10.4229841109       10.9570346631        9.4738522708
  H        -3.0840328898       13.9756278450       16.4226857130
  C        -2.0399147914       13.9980473285       16.3195145322
  H        -1.7168842414       12.9802421718       16.2197274078
  C        -1.2938948344       14.7073939922       17.4480006505
  C        -1.6993939565       14.5915930970       14.9669923662
  C        -1.8648932527       14.2539392354       18.7107260311
  H        -0.2582694737       14.3411800901       17.4684234818
  H        -1.2319106767       15.8251886102       17.3652081727
  H        -0.8340541664       15.1611700602       15.1034070593
  H        -1.4061139301       13.9313383274       14.0324161968
  H        -2.3273184999       15.4165837088       14.6440079639
  C        -0.8935171337       14.3811004972       19.8271896470
  H        -2.2636545233       13.2381195930       18.6950556879
  H        -2.7091395554       14.8842324946       18.7596579416
  C        -1.3768326702       13.9332863007       21.1852798144
  H         0.0603851026       13.7980224846       19.6080410895
  H        -0.7837912644       15.4477806929       19.9445078623
  C        -0.3307097481       13.1970266314       22.0132373300
  H        -2.3566704778       13.3540560438       21.1597732405
  H        -1.4446151756       14.8285336420       21.7691946552
  C         0.7245893348       14.1060554347       22.5268212951
  H        -0.8897113029       12.8090600141       22.9216980925
  H         0.1353143183       12.4263160098       21.3725192547
  C         1.7936625914       13.3239230644       23.4148094333
  H         1.1713247635       14.6622594685       21.7587267901
  H         0.2204273354       14.8284180230       23.1721092327
  C         2.1684546626       11.9629188839       22.8031243749
  C         1.1975375231       12.5965681071       24.5919065702
  C         3.0096247708       14.0837511311       23.8789244849
  C         1.7911469528       10.9082260642       23.5372973472
  C         2.5896739815       11.5278197805       21.5271171382
  C         1.2820497044       11.2694046960       24.7295987938
  C         0.7023614569       13.2791340790       25.6941629206
  H         2.7895982050       15.1280449610       23.9710490639
  H         3.2497620970       13.7044181830       24.8782247926
  C         4.1795029814       14.1146875639       22.9689628599
  S         2.0581097466        9.3842451766       22.7942579970
  C         2.6116975329       10.1907380498       21.3187678301
  H         2.6936943804       12.3085084152       20.7603816488
  C         0.8353647566       10.5663633562       25.8456841088
  H         0.7976795240       14.4065821042       25.7762044237
  C         0.2105746100       12.6027482016       26.7742477975
  H         3.9289036514       14.7697389896       22.1491543231
  H         4.3015399388       13.1192215251       22.7145410302
  C         5.3521513946       14.6929457176       23.7960199654
  C         2.8668538833        9.4935620614       19.9337408341
  C         0.2203994375       11.2657986905       26.8892726191
  H         0.9553666932        9.5130901948       25.9019102902
  C        -0.2714335811       13.0153027563       27.9804506387
  H         5.6099382868       14.1090768746       24.6918566951
  H         5.0998561534       15.7483133199       24.1087210621
  C         6.4340744581       14.7102085299       22.7573630660
  C         2.7551299066        8.0624980134       19.7863884452
  C         3.5600340273       10.1749525564       18.8137421712
  C        -0.1700312871       10.6288447943       28.1228993975
  C        -0.6020382930       11.9189149584       28.7601175965
  S        -0.6642367037       14.5237611281       28.7491531571
  H         7.2226047760       15.1683962976       23.3176568229
  H         6.4337198086       15.3764370229       21.9111415868
  C         6.9706800205       13.3494921239       22.3357442871
  N         2.1774333954        7.1662529093       20.7399681083
  C         3.1676728166        7.4534146719       18.6477056936
  C         3.8430250703        9.5117633823       17.6180229132
  H         3.8810467273       11.1813105017       18.9702158535
  C         0.9889207681       10.0491020936       28.8858167168
  C        -1.2861358188        9.5669692960       27.9063649153
  C        -1.0175984856       12.2431437265       30.0405125581
  C        -1.1771367664       13.6112352731       30.1797800239
  H         8.0327050572       13.4068361626       22.4773335595
  H         6.5357288752       12.4158328229       22.8166001623
  C         6.8620736291       13.2150172053       20.7811304533
  S         2.3420777787        5.6436775466       20.2072402520
  N         2.8689403804        6.0500755175       18.7146364374
  C         3.6047048186        8.0671846137       17.4693795569
  H         4.2892630491       10.1835360769       16.8211481643
  H         1.4595354649        9.1947225665       28.4157421388
  H         0.7429160323        9.7025073009       29.9115565437
  C         2.1744683791       10.9264712752       29.1294692211
  H        -0.9110654936        8.8408469871       27.1190228641
  H        -1.4018716931        9.0383887041       28.8479907630
  C        -2.6491804695       10.1312291448       27.5250479188
  H        -1.0674431946       11.4915276188       30.7721417166
  C        -1.4123821021       14.3016362991       31.4536316073
  H         6.0510892067       13.7251883742       20.3005240598
  H         6.6055985722       12.1829778500       20.5405765417
  C         8.1804956392       13.5925365668       20.1749830471
  C         3.8317864269        7.3123655617       16.2897376647
  H         2.5080928002       11.3276915741       28.1276258214
  H         2.0296971299       11.7292190994       29.7439163940
  C         3.3486845541       10.1351237336       29.6536071733
  H        -2.4772018022       10.7919925329       26.6941578642
  H        -2.9757574917       10.7998526190       28.3717729669
  C        -3.7761836285        9.0121990803       27.3306268471
  C        -1.4915353196       15.6679935614       31.6999366684
  C        -1.6601515838       13.4745527753       32.6782013651
  H         8.5749811047       14.5136796515       20.6126475637
  H         8.9730617617       12.8449604319       20.3052687040
  C         7.9703138033       13.8479402300       18.6670640805
  H         3.5483968318        6.2669166314       16.3828968509
  C         4.1656177694        7.6908190365       15.0221907320
  H         3.6772452262        9.4510621307       28.9256523140
  H         2.9746682940        9.4402676221       30.4741235663
  C         4.4583832277       11.0324867260       30.2194044696
  H        -3.4915800903        8.4402236885       26.5997711158
  H        -3.7791273504        8.4439886254       28.2320146198
  C        -5.1766095720        9.6758258402       27.1070946375
  N        -1.2191959857       16.6756901154       30.7467642023
  C        -1.7778188300       16.2386484263       32.9913588264
  C        -1.9544726669       13.9490135903       33.9090082630
  H        -1.3864968117       12.4267114277       32.6986070969
  H         8.6493327841       13.2135457210       18.0611188872
  H         6.9849969335       13.5219287776       18.2848375381
  H         8.2565999883       14.8638248793       18.4138796120
  S         4.4930666763        9.2798181328       14.5259937371
  C         4.2553072909        6.5969242117       13.9959278225
  H         4.6864549152       11.6524253216       29.3804430886
  H         4.0463858888       11.6416987699       31.0353868587
  C         5.6701838976       10.2419802337       30.7142724781
  H        -5.1930074613       10.5043050093       27.8463716237
  H        -5.9237316119        9.0468080562       27.4795062555
  C        -5.3553261538       10.2566136133       25.6963231696
  S        -1.4103721870       18.1215206014       31.4607532527
  N        -1.9087804776       17.5772060046       32.9998527088
  C        -2.1310231393       15.4086611389       34.0889289831
  H        -1.9619375858       13.2104503314       34.7174143642
  C         4.6157282682        8.5706095405       12.8982996961
  N         4.4625402762        7.1996088844       12.8202467946
  O         4.0694730315        5.4105537827       14.2095487071
  H         5.4192022715        9.7080219367       31.5837250899
  H         6.4846085649       10.9081075409       30.9373151775
  C         6.3200877216        9.4321833193       29.6300560426
  H        -4.4361516061       10.7991002779       25.4665437719
  H        -5.3370667767        9.5203392766       24.9051208303
  C        -6.5286117034       11.1995196307       25.6331483135
  C        -2.4665675222       16.0101885943       35.2905762887
  S         4.9734292140        9.4504457488       11.3638763027
  C         4.3034551845        6.3837435212       11.6073191409
  H         6.0380558207        9.8770371367       28.6548085905
  H         7.4532557955        9.5595618857       29.7916857709
  C         5.8661865067        7.9807669244       29.6597204596
  H        -6.4362100797       11.5971098635       24.6014758626
  H        -6.4153143221       11.9385667068       26.3366367460
  C        -7.8659255526       10.5218579881       25.7680812378
  H        -2.2846950282       17.0878015389       35.3338483865
  C        -2.8821399067       15.5905011300       36.5368221195
  H         4.9927210367        6.7233053174       10.8423523209
  H         4.6972051507        5.4045179086       11.8133729955
  C         2.8312870891        6.4290607415       11.2430574307
  H         5.8961395438        7.7056111048       28.5992613401
  H         4.8251157810        7.8184379914       29.9738656035
  C         6.6385854637        6.9539058068       30.4785584647
  H        -7.8098400913        9.7288921849       26.5442504701
  H        -8.6418278056       11.2995728439       25.8566130990
  C        -8.3704181398        9.9410801705       24.4541926809
  S        -3.3389630125       13.9535055163       36.8616322014
  C        -2.9780250232       16.4855818209       37.6849886830
  H         2.8334035957        5.6906575617       10.4740610059
  H         2.1470580729        6.1709922345       12.0950207450
  H         2.5609252482        7.4071847707       10.7318098807
  H         6.1212487848        6.9067574816       31.4269074007
  H         7.6504331498        7.2223699471       30.6194027115
  H         6.5802138144        5.9348213494       30.0730937527
  H        -7.8209052141        9.0415058594       24.2642668640
  H        -8.2504585134       10.5934523600       23.5484981033
  H        -9.4032624554        9.6964882624       24.6410086596
  C        -3.7939946701       14.5239445359       38.4710827461
  N        -3.5671260430       15.8174479696       38.7222620435
  O        -2.8853042449       17.7137640910       37.5807916963
  S        -4.4798577078       13.5215646474       39.6780975906
  C        -3.9713544201       16.5452517392       39.9074670560
  H        -4.3386344540       17.5826482415       39.6048484866
  H        -4.7507926925       16.0944318041       40.4518902495
  C        -2.7916708873       16.6174902080       40.9051208250
  H        -2.5604123535       17.6477506725       41.3397284259
  H        -2.8797265883       15.8519960532       41.6758898774
  H        -1.8837790609       16.4733692306       40.4169146076
