352
 i =    68400, time =    68400.000, E =        25.1790323933
  H        11.6176629292        5.0247098409       31.5514299898
  C        11.2147993532        6.0006909571       31.6479573419
  H        10.1623826045        5.9790852407       31.3716338464
  C        11.8829965298        6.9516817758       30.6516289123
  C        11.3525532934        6.3830450120       33.1381038791
  C        12.4569792488        6.2168120731       29.4419151568
  H        11.1672601789        7.6596963678       30.3625878357
  H        12.6618124948        7.4359382867       31.2596150179
  H        11.0495685129        5.5290349611       33.6940641365
  H        12.3888652626        6.5832868061       33.3472398207
  H        10.8496552239        7.3248976457       33.3940279449
  C        11.4836310133        5.4377838493       28.6155353901
  H        13.2073172986        5.5326791762       29.8570099377
  H        13.0247585165        6.9814204405       28.7820637988
  C        10.2548289758        6.0274395243       27.9169492295
  H        12.2560629370        5.1152491127       27.8617724897
  H        11.2338910987        4.4976470089       29.0917447364
  C         9.3871986202        5.1338101328       27.0501703586
  H        10.5954562541        6.8780946387       27.2801132997
  H         9.6504199003        6.4416311412       28.6848350481
  C         8.2995506430        5.9068123628       26.3181260326
  H         9.9603098975        4.6193389309       26.3653280056
  H         9.0740313302        4.3882485864       27.7072418473
  C         7.3513955266        5.0420025699       25.4413653155
  H         7.5715978817        6.2815266085       27.1083411921
  H         8.6264334374        6.7369480036       25.7787222531
  C         7.0960070710        3.7670007222       26.0944927013
  C         7.8758073802        4.3291222881       24.2181934765
  C         6.1121451515        5.8667942248       25.0165444608
  C         7.4485158991        2.6155815439       25.3739612275
  C         6.6379553522        3.3568493301       27.3548104583
  C         7.8857776562        2.9600948430       24.1019869393
  C         8.3632557076        4.9566846845       23.1165151500
  H         5.6236311173        5.2461908604       24.2845017664
  H         6.2592924377        6.6638245324       24.2816014904
  C         4.9856687684        6.0510135312       26.0329727452
  S         7.3649822087        1.1443609761       26.2008799925
  C         6.7472703095        2.0129025515       27.5784704242
  H         6.3532761298        4.0982890531       28.0700299823
  C         8.3085678460        2.2845494317       23.0033415753
  H         8.5151020580        6.0292588858       23.1879422388
  C         8.7381855132        4.3070308851       21.9878113394
  H         4.9004526596        5.1970916875       26.7579527141
  H         5.2732171892        6.9261571155       26.7563622203
  C         3.5820282664        6.3829137530       25.3873536274
  C         6.3470681607        1.3523407773       28.8734158185
  C         8.7760029528        2.9516862338       21.8546705520
  H         8.3316889980        1.2639561070       23.0515358386
  C         9.2244606107        4.7485790008       20.8056719857
  H         3.3439091092        5.5917016222       24.7626736375
  H         3.6691354683        7.1703205224       24.7397854333
  C         2.6503777023        6.5346487978       26.5671808357
  C         6.2439276782       -0.0306882074       29.1956159838
  C         5.9535313272        2.1604002445       30.0641755956
  C         9.1249030745        2.3408299787       20.5699903337
  C         9.4610681412        3.7307142936       19.9455972935
  S         9.4669356785        6.2445127560       20.0712681036
  H         1.8802121408        7.2222324825       26.1434978487
  H         3.1856366394        6.9614485682       27.3594448860
  C         2.1104225782        5.1824808019       27.0915612695
  N         6.5910494875       -0.9892216700       28.2493544977
  C         5.9895448844       -0.6050608265       30.4522441908
  C         5.4691115436        1.6505771710       31.2713437066
  H         6.0942404619        3.1812871431       29.9658731710
  C         7.9296523146        1.7028968985       19.7833642600
  C        10.4039746376        1.5475901929       20.5806955166
  C        10.0024161319        4.1950980347       18.7295597423
  C        10.0219547444        5.5235251183       18.6468934736
  H         1.1475029617        4.8562994231       26.6471680815
  H         2.8825351566        4.3816814077       26.9355668356
  C         2.0451734387        5.3429243438       28.6154989134
  S         6.3386838888       -2.4743530214       28.8857277850
  N         6.0621705701       -1.9770864676       30.4172260372
  C         5.5277710827        0.1461853660       31.5311482597
  H         5.2289644711        2.3771543515       31.9855677898
  H         7.4077678637        0.9423419449       20.4020500189
  H         8.3793521106        1.1400577211       18.9751990913
  C         6.8737156855        2.7158657709       19.3543031321
  H        10.6490828880        1.1875144841       19.5658677540
  H        10.1431834754        0.7434832826       21.2303165970
  C        11.5630461785        2.2176774983       21.3138331530
  H        10.1759097779        3.5188113697       17.9842546619
  C        10.1876070247        6.3349568266       17.4132525384
  H         1.3059831957        4.7629708088       29.1394101296
  H         1.8461810281        6.4009824411       28.6951843446
  C         3.3450554067        4.9765394285       29.5009633848
  C         5.2570760334       -0.5127582121       32.7526748896
  H         7.2550345037        3.2995572008       18.5027102455
  H         6.5621214262        3.5375335559       20.0193169784
  C         5.5288048456        2.1599222921       18.8774275377
  H        11.4804520528        2.5985952397       22.3151916352
  H        11.6792276384        3.2069307907       20.8775345241
  C        12.8116585043        1.3860689302       21.1834237897
  C        10.3114569865        7.7012758282       17.2686207891
  C        10.3885532715        5.5783746498       16.1693759561
  H         3.6835916238        4.0024625742       29.3554171183
  H         4.1663695687        5.6409620630       29.2195850606
  C         2.9662770037        5.0179662648       30.9693299007
  H         5.1917641656       -1.6290642144       32.7120368376
  C         4.9424440434       -0.0535926005       33.9984844437
  H         4.9057806832        3.0772294085       18.6080371476
  H         5.2464481694        1.7593586647       19.8898082574
  C         5.7500192516        1.2114778005       17.7173794608
  H        12.7194598868        0.5003777329       21.7333665180
  H        12.8843366040        1.0598007911       20.1849279256
  C        14.0380648425        2.2433993505       21.4981588821
  N        10.2026575382        8.6249185733       18.3911890729
  C        10.5962041450        8.3043854861       16.0902719975
  C        10.7518427397        6.1355740765       14.9889851900
  H        10.2796226004        4.5481726321       16.1632360779
  H         3.2396807236        5.9677731230       31.2479616149
  H         1.8992364270        4.8005505923       31.1526474479
  H         3.5793086657        4.2784894939       31.5262724705
  S         4.8092954212        1.5507803736       34.5444203130
  C         4.9113540484       -1.1124615553       35.0192920658
  H         6.4966668624        1.4461509802       16.9955986832
  H         6.1634800846        0.2658743171       18.0479047891
  C         4.4521925949        0.9081378056       16.8787969244
  H        13.6410567324        3.1445773573       21.9372390642
  H        14.3969125983        2.4566342046       20.4955300177
  C        15.1273094798        1.5175440615       22.2958658115
  S        10.5178034521       10.0558302608       17.7849830807
  N        10.7947587019        9.6955171001       16.2680474709
  C        10.9197780665        7.6678164256       14.8783857613
  H        10.8332439275        5.5828385413       14.0845445864
  C         4.7083921165        0.8077301868       36.1408270585
  N         4.8275493319       -0.5177785671       36.2123180521
  O         5.1577334393       -2.3494406073       34.8252871434
  H         4.7086152957        0.3807532600       15.9446939483
  H         3.8540828654        1.7544374713       16.5947607223
  C         3.4886368079       -0.0685841716       17.5569315210
  H        14.6767962718        0.6877257773       22.9102857295
  H        15.7978845627        0.9507173514       21.7190299172
  C        16.0258086862        2.4979393570       23.0930001203
  C        11.3935086003        8.3916841718       13.7317751153
  S         4.3935733424        1.7495298742       37.6143438077
  C         5.1215318378       -1.2091978011       37.4493657343
  H         3.7227904780        0.0938729254       18.6129328539
  H         2.4671982907        0.3285989740       17.5225990225
  C         3.6075868171       -1.6105019461       17.3835230253
  H        15.5197257745        3.0023402473       23.9035678978
  H        16.4212228681        3.3059870310       22.4251003070
  C        17.1586083501        1.7586578219       23.7499873964
  H        11.4552917480        9.4321227657       13.7648326367
  C        11.8438947680        7.9241556759       12.5312499910
  H         4.6067511390       -0.7503289479       38.3398709618
  H         4.7684117024       -2.1926067146       37.2565375881
  C         6.6178230065       -1.1293692499       37.7913513810
  H         3.7265169634       -1.9993876436       18.3455490589
  H         4.3968247205       -1.9077509094       16.7749727042
  C         2.4615918550       -2.3637006569       16.6195819792
  H        17.4262085505        2.2456107816       24.6665572738
  H        16.9422872764        0.7095623051       24.0207021966
  C        18.3159756819        1.7411737386       22.7163969173
  S        12.3780209467        6.3582333013       12.0137708308
  C        12.0259439697        8.9493611425       11.4587949114
  H         6.9355409431       -1.7693454029       38.6359484766
  H         7.2261928524       -1.3824757678       36.8999956805
  H         6.7561515052       -0.1138145011       38.1469677770
  H         1.9218034969       -1.8112036156       15.8317438230
  H         1.6603663218       -2.6376552246       17.3370310509
  H         2.9019723501       -3.2525998093       16.1784251960
  H        18.5106921096        2.6949048204       22.2288750718
  H        17.9031166996        1.1244495021       21.9086067924
  H        19.2424025784        1.3351994007       23.0833609898
  C        12.7731441888        7.0859435137       10.4836555170
  N        12.7206242570        8.4010354225       10.4261869270
  O        11.5749350984       10.1040152597       11.4411201274
  S        13.5144869717        6.2142254076        9.1850248905
  C        12.9017325962        9.0938804507        9.1400994584
  H        13.2706528300       10.0850845047        9.3967129135
  H        13.5976693690        8.6112937786        8.4157036651
  C        11.5938688861        9.1538667140        8.4236416528
  H        11.4282601694        8.1994247600        7.7623820284
  H        10.6912110734        9.3164165445        9.0210068419
  H        11.5478431124        9.9955454078        7.7007230098
  H        -3.0165315845       14.7453674374       16.2879462746
  C        -2.6393460214       13.6951215337       16.1534115666
  H        -3.4848227040       13.1532434802       16.4271079949
  C        -1.5830583345       13.4273303435       17.2637140191
  C        -2.3166942940       13.4112041054       14.7184696577
  C        -2.3022754975       13.4130987687       18.6732018721
  H        -1.0799854551       12.4827633605       17.1086208454
  H        -0.8342998616       14.1207812742       17.3577695662
  H        -1.4097696380       13.8515971513       14.4369197767
  H        -2.2481089372       12.3677629273       14.4657168484
  H        -3.2043402633       13.7416804583       14.1161090197
  C        -1.2685515944       13.5052837143       19.7443658854
  H        -2.8438210211       12.4985813996       18.8090425743
  H        -2.9514167567       14.2995863769       18.9095451858
  C        -1.8017010535       13.2987373615       21.2392716213
  H        -0.5394426230       12.6753893171       19.6729559451
  H        -0.5714541863       14.4051208624       19.5908193219
  C        -0.7829383882       12.6081310801       22.1623826529
  H        -2.7037382627       12.6499566055       21.0631067757
  H        -2.1233769705       14.2374687135       21.6878801996
  C         0.4515385853       13.4025765232       22.3547343967
  H        -1.3248092534       12.5141731911       23.1233291018
  H        -0.5987853018       11.5916905959       21.8360024869
  C         1.5548734185       12.5996910740       23.1482015401
  H         0.9044584930       13.7081637443       21.4373794276
  H         0.1836929489       14.2758722079       22.9141595584
  C         1.9186952757       11.2259527529       22.5119729126
  C         1.1650853048       11.9462939000       24.4743124235
  C         2.7926823940       13.5414486752       23.3388908702
  C         1.6549395588       10.1775960612       23.3436759060
  C         2.3147139167       10.8099806657       21.3064503088
  C         1.2293270263       10.5586808300       24.5801692144
  C         0.6356044003       12.6111972013       25.5740716908
  H         3.2917391339       13.6766371409       22.3948894668
  H         2.5457075545       14.5320097780       23.7311709845
  C         3.9947611291       13.0537167053       24.2371776370
  S         1.9595028229        8.7058961033       22.5889373480
  C         2.3977097318        9.4542939892       21.1080458181
  H         2.4806750624       11.5402030438       20.5784852001
  C         0.7506907052        9.8909853446       25.6980133539
  H         0.4614699274       13.6935279612       25.5315578715
  C         0.1620188499       11.9448405649       26.6825086016
  H         4.3091746864       12.1700933865       23.8193755648
  H         3.6223824510       12.7911959682       25.2490986971
  C         5.0817667518       14.1221495305       24.4698834586
  C         2.7455161708        8.8181188796       19.7702522211
  C         0.2580772260       10.5749404715       26.7853301258
  H         0.6374810768        8.8768861900       25.7838263290
  C        -0.3055012049       12.3176656804       27.8660659043
  H         5.7330569782       14.0716675666       25.3752628413
  H         4.6661759444       15.0413682352       24.6324396330
  C         5.8819312351       14.3429265371       23.1912437175
  C         2.5160435468        7.4192776886       19.4341267443
  C         3.2234931817        9.7184891526       18.6913167099
  C        -0.2246258126        9.8211046821       27.9956359577
  C        -0.4416683560       11.2082759650       28.6994842288
  S        -0.5192928344       13.8347143694       28.6334378000
  H         6.6418164413       14.9871239373       23.6570000464
  H         5.2357634163       14.8483843372       22.4045775690
  C         6.5058094069       13.1494115650       22.4504790106
  N         2.1671731307        6.4165585442       20.3774573060
  C         2.9251410511        6.9552075229       18.2708788984
  C         3.4467113743        9.2332603134       17.4162035559
  H         3.1313290634       10.7938929450       18.8252584614
  C         0.8836096117        9.0143746276       28.7148886532
  C        -1.4997818251        8.9179785757       27.6362974429
  C        -0.8912985716       11.6179867631       29.9835163639
  C        -0.9171966320       12.9792717812       30.1114391231
  H         7.0576900432       12.3879750914       23.0945564589
  H         5.7156298620       12.7091564882       21.9333512195
  C         7.4411004939       13.5404963847       21.2658326306
  S         2.3019272474        5.0059125359       19.5700012826
  N         2.7564925579        5.5690774500       18.1401883698
  C         3.3914880539        7.7893031293       17.1593380713
  H         3.5918747776        9.9260886644       16.5881548639
  H         1.3795171634        8.4135698831       27.9891860028
  H         0.4595328404        8.3010669447       29.4109713771
  C         1.8274161308        9.8432033458       29.5367568400
  H        -1.5060026107        8.4436288646       26.6548315638
  H        -1.6711799327        8.2349066875       28.4584161884
  C        -2.7753234748        9.8017020894       27.6288311286
  H        -0.9847344964       10.8571552990       30.7523729120
  C        -1.2996501926       13.6974637392       31.3506764864
  H         8.3282057839       12.8186926528       21.3103566519
  H         8.0397163100       14.4316277503       21.4660029344
  C         6.7567353350       13.4039327352       19.8738013346
  C         3.5762010168        7.1076181502       15.9569944120
  H         2.3573795592       10.6770200048       29.0057844571
  H         1.3651775007       10.3320485129       30.4087224688
  C         2.9544603014        9.0137423939       30.0663846155
  H        -2.5020406735       10.7135200730       27.0720611053
  H        -2.9743219059       10.2123552448       28.6350238242
  C        -4.1102895565        9.1526508946       27.3885924063
  C        -1.3848964123       15.0778703456       31.5685071827
  C        -1.4593598011       12.8304931618       32.5736403537
  H         6.1236430567       12.5079078855       19.7015423788
  H         6.0778562379       14.2869982355       19.5846197177
  C         7.9117545886       13.5902307502       18.9041743800
  H         3.3928618968        6.0797495821       15.9576145299
  C         3.8852449353        7.4764690494       14.7161243199
  H         3.3026778527        8.4270143792       29.2719545039
  H         2.5546256574        8.2803856709       30.7976983979
  C         4.1003344582        9.8171527218       30.7045442742
  H        -3.9888636451        8.5767308081       26.4614938459
  H        -4.3302550164        8.5665395755       28.2353477283
  C        -5.2197771397       10.1241428303       27.2869597527
  N        -1.2542832659       16.1201067734       30.5890119937
  C        -1.6359395897       15.6119264475       32.7906165571
  C        -1.7838160472       13.4004477809       33.7871333545
  H        -1.4358124124       11.8314645644       32.4927619492
  H         8.5544521049       12.7505523384       18.8205299939
  H         7.5807389896       13.9713662366       17.9618285273
  H         8.4528328369       14.4497781331       19.2909785637
  S         4.3268965269        9.0570026327       14.2788142264
  C         3.9488916724        6.4431917958       13.5833739734
  H         4.0804539232       10.8438971767       30.2273980365
  H         4.0527729514        9.9650861540       31.8139348592
  C         5.5297730308        9.1946443520       30.4696233483
  H        -4.9252664188       10.9606704247       26.5998158930
  H        -5.3926485514       10.5109568090       28.3193751996
  C        -6.4535781046        9.4696635440       26.8478135554
  S        -1.2692121231       17.5654067912       31.3010815567
  N        -1.5596240230       17.0382228324       32.8086913040
  C        -1.8937615269       14.8597009539       33.9452263163
  H        -1.9879718529       12.7916229556       34.6351372460
  C         4.6503516797        8.3556909578       12.7250261351
  N         4.4884067738        7.0364076607       12.5115511360
  O         3.8125405058        5.2227884144       13.7900464993
  H         6.2948982543        9.9563246244       30.4463398779
  H         5.7201966922        8.7862931531       29.4798711888
  C         5.9574384701        8.0436640753       31.4287296234
  H        -6.3310036434        8.3972751229       26.6187122493
  H        -7.2121333468        9.3958719850       27.6479115698
  C        -7.1549257686       10.1788117229       25.6835548862
  C        -2.0620222144       15.5866288070       35.1762206786
  S         5.2202870519        9.3254564151       11.3989589847
  C         4.7377396743        6.4292409968       11.2047076018
  H         6.1983735906        8.4392330717       32.4294220201
  H         5.1939754078        7.3203376035       31.4517487621
  C         7.1614301598        7.3054597028       30.8575205857
  H        -6.5725171647       10.7486036269       24.9442619979
  H        -7.7513121129       10.9717644672       26.1565567997
  C        -8.2236106389        9.2973029274       25.0331786501
  H        -1.5592165080       16.5858061486       35.2547133173
  C        -2.5601502452       15.2677738326       36.4077193979
  H         5.6983650258        6.7863431157       10.7297073168
  H         4.8185376885        5.3751730240       11.3457472062
  C         3.5851105336        6.6885219666       10.2301864157
  H         7.7959158357        7.2253813166       31.7686827058
  H         7.7308149663        7.9075464560       30.1571198899
  C         6.8124456828        5.9079026839       30.1436659465
  H        -8.6427971790        9.9119158761       24.2151780474
  H        -7.9368536861        8.2619721216       24.7151039532
  C        -9.4231666612        9.1606962648       25.9511702014
  S        -3.2161515278       13.7157455666       36.9478213120
  C        -2.7140235699       16.3303128282       37.4532237552
  H         3.2990255420        7.7294551532       10.1219536745
  H         3.7975220066        6.1829092983        9.2754612096
  H         2.6992516065        6.1623171511       10.5373877184
  H         7.7150831684        5.3993543019       29.9668638783
  H         6.2562404261        6.0956204993       29.1655355716
  H         6.1045101464        5.3455425076       30.8343612992
  H       -10.3878354749        9.2780450178       25.3966038826
  H        -9.4016286684        9.9762091008       26.7405403773
  H        -9.4854373886        8.2564201524       26.5040119222
  C        -3.6385797471       14.5115144253       38.4696124918
  N        -3.3265839817       15.8327990662       38.5373128946
  O        -2.3104745185       17.4609830187       37.2602443729
  S        -3.9888131878       13.5749955753       39.8799540318
  C        -3.3655079313       16.6693014167       39.7769597464
  H        -3.5560539072       17.6922164593       39.5920055137
  H        -4.0966633239       16.1873610717       40.4214236524
  C        -2.0005602932       16.7859488874       40.4856271091
  H        -2.1098332294       17.3303253930       41.4020675073
  H        -1.3641121591       15.9042945457       40.4315789998
  H        -1.3792246530       17.4826215845       39.9199246142
