352
 i =    28600, time =    28600.000, E =        24.5663598298
  H        11.8899510053        6.6987281896       32.2371241594
  C        11.6494743908        5.6583065941       32.3801176835
  H        12.5155556093        5.0018869238       32.0738306718
  C        10.6068700322        5.4860887309       31.2884736100
  C        11.1434016111        5.3120349111       33.7623801470
  C        10.9372062319        6.0099448985       29.9378283517
  H        10.2293902397        4.4659376509       31.1914384726
  H         9.6324741194        5.9327263205       31.6082480815
  H        11.6907581149        4.5622774185       34.3268849730
  H        11.4862399418        6.1603445727       34.2683907621
  H        10.0523397598        5.1786163530       33.9346262681
  C        10.6688164844        5.1077992952       28.8020371472
  H        11.8831384423        6.5278873717       29.8562431771
  H        10.0667405237        6.7031611555       29.7192157074
  C        11.0499745152        5.6193771900       27.4016546773
  H        11.3022904182        4.2024681043       28.9386495066
  H         9.6017090258        4.8801112523       28.9178012326
  C        10.0547565950        5.0372909734       26.3792323940
  H        12.0214307968        5.1593108314       27.1664822645
  H        11.0850154340        6.7031087915       27.3256444083
  C         8.7534379915        5.8409509975       26.3774438055
  H        10.4073323393        4.8891644166       25.3624652251
  H         9.7541260865        4.0526348596       26.7786584059
  C         7.5225982240        5.1733699951       25.6881054789
  H         8.4664429155        6.0886590302       27.4148043844
  H         8.9891686864        6.7635450051       25.7517294686
  C         7.1157329864        3.7835260771       26.2849557115
  C         7.8472020388        4.4340060757       24.3892584069
  C         6.1989792036        6.0245116500       25.5927766539
  C         7.2010828871        2.7776014916       25.3542740209
  C         6.5379627762        3.4246339542       27.4493315826
  C         7.7136938345        3.1651356234       24.1626525773
  C         8.3163948205        5.1329524860       23.2897396610
  H         6.2145948045        6.9809307353       25.1007076499
  H         5.9302013738        6.1938434060       26.6403703179
  C         4.9850584405        5.3340798249       25.0182427745
  S         6.6740604028        1.3241480591       25.9762994299
  C         6.3204616006        2.0774210235       27.4684036257
  H         6.4654336333        4.1406999931       28.2836556272
  C         7.9405552752        2.6096027752       22.9453604244
  H         8.4217406199        6.2390934434       23.3131805231
  C         8.6214196469        4.5643994477       22.0422186686
  H         5.2192977634        5.2686324227       23.9637242928
  H         4.8207280942        4.3378003349       25.4246586681
  C         3.6866893108        6.1267419408       25.0312057051
  C         5.7561361503        1.3566749989       28.6892566794
  C         8.4706051419        3.2859736246       21.8427289886
  H         7.8716755257        1.5326016736       22.8901429078
  C         8.9989825003        4.9699651572       20.7736767527
  H         3.0921398002        5.6220833803       24.1943614134
  H         3.8805220974        7.1809131990       24.6892346141
  C         3.0103898970        6.1419725533       26.4248147246
  C         5.8336413706       -0.0259981778       28.9403947926
  C         5.2173830404        2.1198528691       29.8034230092
  C         8.8776287506        2.6342561011       20.5599551573
  C         9.2278165109        3.9279125516       19.9117491267
  S         9.1943663253        6.5321734093       19.9416734367
  H         2.2649075833        6.8979668302       26.4239509188
  H         3.7199513127        6.5096968043       27.1670302930
  C         2.2811422130        4.8480576711       26.8387904756
  N         6.2510160774       -0.9395403284       28.0006537026
  C         5.5333194200       -0.5931560633       30.1101402907
  C         4.9745632469        1.5202115334       31.0314193874
  H         4.9843659237        3.1617590902       29.6331163990
  C         7.7237159503        1.8606106627       19.8427214592
  C        10.1255095638        1.7609483165       20.7888703865
  C         9.6657270489        4.3129407943       18.6384750118
  C         9.6983096949        5.6683981943       18.5011976268
  H         1.7957573959        4.3907074981       25.9788455544
  H         3.0096437450        4.1428951045       27.0272935748
  C         1.3712611086        5.0100499826       28.1095705036
  S         6.0926861671       -2.4164682113       28.6245620768
  N         5.8194082945       -1.9857480669       30.1339431840
  C         5.1594992198        0.0565591869       31.2638602345
  H         4.6098923917        2.1954969130       31.8278433074
  H         7.3730058844        1.1328493161       20.5750426790
  H         8.0962130953        1.2523212579       19.0457997273
  C         6.5206190666        2.7355898491       19.3875890444
  H        10.2832397055        1.2642533449       19.8238127273
  H         9.8253155683        0.9661507770       21.5255777789
  C        11.4797994619        2.5102455071       21.0053285535
  H         9.9297906321        3.5076553116       17.9536465394
  C        10.0818738515        6.4161924700       17.2163563839
  H         0.7847763231        4.1183788099       28.2340366122
  H         0.6535780241        5.8302601543       28.0492583158
  C         2.3099923684        5.2814358262       29.2773175627
  C         4.9326824713       -0.6565078331       32.5072722480
  H         6.9338027356        3.4236852908       18.5629116168
  H         6.1768822136        3.3945102089       20.1706276262
  C         5.4484899526        1.8228191154       18.7952879013
  H        11.5398350745        3.1465821879       21.8843136346
  H        11.7179294127        3.1469596705       20.1595462300
  C        12.5285326286        1.5375618248       21.3737770998
  C        10.1118783495        7.8522773648       17.1135074865
  C        10.2060638881        5.6862066748       15.8870092986
  H         3.0304627201        4.5411005525       29.4568535024
  H         2.8664035172        6.1855721635       29.2015821371
  C         1.6273150337        5.3951307660       30.7221277423
  H         4.9255597537       -1.7337332638       32.4271478261
  C         4.5830482541       -0.2918230845       33.7821100260
  H         5.0919887075        1.1896181533       19.6248285783
  H         5.7636592914        1.1961503551       17.9989996875
  C         4.2399154031        2.5668435313       18.2296752291
  H        12.5732498991        1.3892026891       22.4849328879
  H        12.3655531810        0.5786404854       21.0133504240
  C        13.8622008031        2.1229741733       20.7755912022
  N         9.7601694339        8.7870598806       18.1102585556
  C        10.3172783578        8.4983553518       15.9064641217
  C        10.4591587809        6.3587511797       14.7207672878
  H        10.1104868227        4.5893191625       15.9041772447
  H         2.5706884813        5.4247844486       31.3814887037
  H         1.2504094213        6.3773349239       30.8897637427
  H         0.8742586278        4.6587872649       30.8756849529
  S         4.2778319122        1.3718766760       34.2792739069
  C         4.5801759509       -1.3097032961       34.8632207872
  H         4.0985244460        3.4690165153       18.8032197520
  H         4.3664477890        3.0428114329       17.2190940438
  C         2.9644401371        1.7455419658       18.2148479952
  H        13.5625407388        2.9006382524       19.9943639800
  H        14.4169470589        1.4874226327       20.0959127883
  C        14.8326398922        2.6456872257       21.8414460684
  S         9.8329354507       10.2769728950       17.5235658097
  N        10.1061674758        9.8835160823       15.9768171917
  C        10.5828114467        7.8543161621       14.7013269150
  H        10.6022850534        5.7700969936       13.7859738169
  C         4.0574004716        0.6367624909       35.8344205168
  N         4.3213612100       -0.6615765039       35.9903918907
  O         4.9059647150       -2.4841684194       34.7244218182
  H         2.0452432876        2.3381911788       18.2109689845
  H         2.8042554323        1.2843250338       19.1750799757
  C         3.0315699239        0.6347379452       17.2073076072
  H        15.5459053841        3.2221876318       21.2540262896
  H        14.2903263239        3.1585315466       22.6358378708
  C        15.4387836114        1.4207695670       22.4676466586
  C        10.8744599641        8.6353156437       13.5160599295
  S         3.6711752476        1.5662136125       37.2544857006
  C         4.3147798571       -1.4360991763       37.1842288005
  H         2.2543290592        0.7559119812       16.5146035143
  H         3.9771893879        0.8623381741       16.6594809332
  C         3.0091710544       -0.8049497803       17.8182897628
  H        15.5023793612        0.6764967218       21.6547889232
  H        14.7120902665        1.0523035965       23.2260271063
  C        16.7614741274        1.6898072722       23.1768046070
  H        10.7847364847        9.7416540186       13.7245735780
  C        11.3565894550        8.3257499236       12.2970599662
  H         3.5328128837       -1.1626818281       37.8210456858
  H         3.9809129298       -2.4386492616       36.9024275638
  C         5.7119761664       -1.5408372122       37.7854850354
  H         3.7500311374       -0.7877533681       18.5989957729
  H         3.4644022794       -1.5901852126       17.1798691070
  C         1.5283295835       -1.2302009931       18.1960958851
  H        16.7156701367        2.5735699070       23.8018100799
  H        17.0053098021        0.9071968558       23.8620631731
  C        17.8937060528        1.8722518898       22.1558010248
  S        11.9463429992        6.8464576512       11.7216506444
  C        11.5094306179        9.3968341753       11.3320708503
  H         5.7606170659       -1.9091594984       38.7993775425
  H         6.3324035995       -2.0964484673       37.1793486703
  H         6.1518270854       -0.6077225928       37.9006191270
  H         1.7391303677       -2.0532820641       18.9699938228
  H         1.0122478779       -1.5776097313       17.3497493378
  H         0.9798939449       -0.4789485693       18.7686753389
  H        17.9771898749        2.9402751136       21.8973939958
  H        17.7466072677        1.3504234432       21.2234776246
  H        18.9443953857        1.5990084834       22.4315589888
  C        12.2542067882        7.5760996216       10.1848759015
  N        12.0300034754        8.9360144626       10.1881157196
  O        11.1887757426       10.5180607520       11.6287775801
  S        13.1322002077        6.9133023846        8.8385148418
  C        12.1574227082        9.7359207752        9.0534782502
  H        12.2264040449       10.7798393675        9.4140986488
  H        13.0850021620        9.5540351586        8.4828487687
  C        10.9763186637        9.6630129218        8.1364378105
  H        11.0851975597       10.3088112773        7.2636353417
  H        10.7551711658        8.5833347018        7.8125119716
  H        10.0545596298        9.8867802672        8.6877320901
  H        -3.7188601080       15.3309383805       17.1260977849
  C        -3.2685846718       14.3866484936       16.9467452670
  H        -3.9351496801       13.5975493496       17.2574164382
  C        -2.1096089567       13.9916904746       17.8612860898
  C        -2.9102605787       13.9841062491       15.5330883753
  C        -2.5363945709       14.1470531584       19.3111507711
  H        -1.7773083421       12.9303008337       17.6270033973
  H        -1.2677607251       14.5796838427       17.8102763137
  H        -2.8517084460       12.9578351544       15.2676943321
  H        -3.6271297101       14.5245589799       14.9191267435
  H        -1.9790739305       14.4601720736       15.3254664600
  C        -1.8439138363       13.1722708477       20.3010577094
  H        -3.6671701019       13.9586273711       19.3230097664
  H        -2.3610054598       15.1816534205       19.7050887115
  C        -2.4303363191       13.3293589841       21.7042382981
  H        -1.9494753415       12.0982428858       19.9716176804
  H        -0.7342922702       13.3422865279       20.3383899592
  C        -1.3930302803       12.7377759342       22.7270882634
  H        -3.3418433479       12.8760595171       21.6937765049
  H        -2.6808537223       14.4443362911       21.8628767293
  C        -0.1691397697       13.6596010956       23.0183870169
  H        -1.9576286168       12.4847470845       23.6465798640
  H        -1.0035582163       11.8768771653       22.1959835048
  C         1.0195196998       13.0146195881       23.7367152643
  H         0.2676589176       14.0182628523       22.0692768970
  H        -0.5015161091       14.5148653963       23.5503689709
  C         1.3663312112       11.7149257125       22.9704060296
  C         0.6388841424       12.1957530203       24.8905169162
  C         2.2278584772       13.8702390997       23.8414292325
  C         1.2523916221       10.5459554479       23.7327096301
  C         1.8021490607       11.4694000000       21.6939660399
  C         0.6593071317       10.8354654688       24.9473049211
  C         0.1514430752       12.7627959829       26.0730267455
  H         2.4896439490       14.3507557131       22.8952012987
  H         1.9650704449       14.6338356024       24.5824828311
  C         3.5055654526       13.1464052985       24.2240986075
  S         1.7131411966        9.1549684621       22.8628648077
  C         2.0033330198       10.1181946839       21.4520073373
  H         1.8772561527       12.3165829738       21.0095516416
  C         0.2851182374       10.1819211940       26.1373463410
  H         0.1499527068       13.8052116746       26.1821569674
  C        -0.2230823989       12.1410797658       27.2063968409
  H         3.6987828875       12.2845611138       23.5280015785
  H         3.2447030967       12.6032402688       25.1851465040
  C         4.7405737028       14.0003553950       24.2939431061
  C         2.3806380342        9.4877040314       20.1008888454
  C        -0.1243583890       10.8061312314       27.3162059206
  H         0.3677596854        9.1057131585       26.1808726040
  C        -0.6832534391       12.5169816819       28.4296964659
  H         5.5336124008       13.4254517380       24.8005266345
  H         4.4249394136       14.9690751655       24.7947626409
  C         5.3356792562       14.3221652136       22.9109919113
  C         2.3009788838        8.0714616741       19.8045315915
  C         2.9249518407       10.3164838588       19.0140401015
  C        -0.4780633104       10.0883862774       28.5185631215
  C        -0.7800318186       11.4269701880       29.2673226221
  S        -1.1116096971       14.0337612111       29.1436631746
  H         6.2675913729       14.9660627660       23.0841555244
  H         4.6862237030       14.8789548619       22.2458341819
  C         5.7665483258       13.1349022665       22.0662496794
  N         1.9137350286        7.0550049650       20.7447678347
  C         2.7257853199        7.5004377314       18.6097748304
  C         3.2578264928        9.7165858515       17.8232301236
  H         2.9832064649       11.3897291157       19.0994215575
  C         0.5810420667        9.3244330837       29.2572606087
  C        -1.8385717161        9.3654247257       28.2866683400
  C        -1.2634951543       11.8565611434       30.4875971299
  C        -1.2841313430       13.2041839901       30.5829046924
  H         5.7256925496       12.2705777984       22.7793373234
  H         4.9780017736       12.8073256367       21.4276171744
  C         7.0481518556       13.2761554926       21.2784118060
  S         2.1453611487        5.5725488857       20.1312366245
  N         2.6597734433        6.0696221059       18.6293046930
  C         3.1912389061        8.3059377848       17.5387580029
  H         3.8001267860       10.2328819729       17.0679444770
  H         0.9363426656        8.3957231544       28.7545126564
  H         0.2284057143        8.9213401184       30.1888283962
  C         1.7458359674       10.2182060486       29.7934934271
  H        -1.6618765509        8.7461606934       27.4613234770
  H        -2.0037073382        8.6323902396       29.0444489384
  C        -3.1048098596       10.1898011430       28.0317123680
  H        -1.3462129697       11.1466697565       31.2915522638
  C        -1.5915185785       13.9318108610       31.8857524288
  H         7.3882111329       12.3289718456       20.9232114834
  H         7.8088527457       13.5654549707       21.9855057805
  C         6.9319479457       14.2065799220       20.0079827474
  C         3.4869028266        7.7167876524       16.3064057751
  H         1.9318296997       10.9769082126       29.0734335385
  H         1.4469022319       10.7111796602       30.7289188750
  C         3.0273646185        9.3799341920       29.9595082455
  H        -2.9279828472       10.9008157348       27.2458759925
  H        -3.2210789374       10.6853801484       28.9401271020
  C        -4.2975315413        9.2636880044       27.8216920784
  C        -1.7279695249       15.3247112640       32.0241264347
  C        -1.9022394014       13.1552672587       33.1223263782
  H         6.1452182903       14.9517531609       20.3207871693
  H         7.9109021309       14.5905607777       19.8696996352
  C         6.4097182094       13.4844636866       18.7500352130
  H         3.1271321996        6.7345975112       16.3196821897
  C         3.7841112423        8.1770440770       15.0963645910
  H         3.4785367457        9.2055163107       28.9921582996
  H         2.6949026632        8.4046737846       30.3199685155
  C         3.9702255387       10.0434656788       30.9636888881
  H        -4.1861263991        8.7487384532       26.8571646800
  H        -4.4716195252        8.5809955507       28.6551552060
  C        -5.6411642144        9.9402936298       27.5243309003
  N        -1.6383087594       16.2512240102       30.9632032103
  C        -1.9632938671       15.9828650320       33.1923102783
  C        -2.0347943128       13.8239516058       34.2865020804
  H        -1.7871717560       12.1128040685       33.3125687774
  H         7.2486491834       12.8920196474       18.4298369471
  H         5.5539370488       12.8440430149       18.8431668122
  H         6.3079549217       14.1233533754       17.8390788249
  S         4.0587022209        9.8093054531       14.6129876957
  C         3.8214135116        7.2516811803       13.9402215129
  H         3.9582360964       11.1267017462       30.7449259502
  H         3.4821058527       10.0224411064       31.9393376364
  C         5.3975210605        9.4004820311       31.0948447610
  H        -5.7611876397       10.9072373316       28.0474594147
  H        -6.4131037050        9.3569424615       28.0573173728
  C        -6.0815667326       10.0163108487       26.1251472804
  S        -1.5635741702       17.8316504116       31.4496640742
  N        -1.9936526704       17.4092707755       33.0233346913
  C        -2.2070856920       15.3414394348       34.4080978230
  H        -2.2173627260       13.2474059626       35.2054292035
  C         4.0519119118        9.1661003459       12.9656554107
  N         4.1621986768        7.8637824277       12.8420537927
  O         3.5716173204        6.0464219380       14.0632036660
  H         5.7531516547        9.8567645338       32.0009058224
  H         6.0433744361        9.6624022198       30.2730774114
  C         5.3746144957        7.9170231638       31.3414390239
  H        -5.1780466254       10.1897896333       25.4242365219
  H        -6.4047117071        9.0695675837       25.8299516551
  C        -7.1418287085       11.0226741479       25.6749093064
  C        -2.6177686220       16.1273329123       35.5220756744
  S         4.4811431901       10.0960208332       11.5300211875
  C         4.2857898052        7.1443899985       11.5303437064
  H         6.0131549565        7.6171541348       32.1644100428
  H         4.4029648930        7.5972053040       31.7680139439
  C         5.8966703243        7.0201873692       30.1989817388
  H        -7.0455789289       11.2166212953       24.6040576471
  H        -6.7478632918       11.8639442167       26.2342089083
  C        -8.6387257781       10.7858682428       26.1770701538
  H        -2.4657363466       17.2106338035       35.5217867211
  C        -3.0962032304       15.7538034837       36.7153182985
  H         5.2407038115        7.4208515368       11.0516264564
  H         4.2969220243        6.0645067988       11.7494998474
  C         3.0945272953        7.3796530759       10.6698671069
  H         6.4027616894        7.6991773149       29.5531492302
  H         5.0946061125        6.7163042089       29.5927940606
  C         6.7921989361        5.9084597323       30.5623927241
  H        -8.7300945304        9.9920300089       26.9117324809
  H        -9.0612852939       11.7088056015       26.4892730009
  C        -9.6441154353       10.3543901686       25.0870671470
  S        -3.3884669683       14.0977692590       37.1517718551
  C        -3.2535886755       16.8010678379       37.7209930067
  H         2.6979659740        6.4303572319       10.6107127717
  H         2.4192418120        8.1506512166       10.9982866795
  H         3.4333462492        7.5406596602        9.6115158232
  H         6.3400410690        5.0943346771       31.1779501774
  H         7.6339866643        6.2379546041       31.2212050650
  H         7.2398538241        5.4397889695       29.6480657585
  H       -10.1506785063        9.4494069021       25.5483671669
  H        -9.3513057264       10.0426825004       24.0958928521
  H       -10.3640811603       11.1523884100       24.9947783512
  C        -3.8560088127       14.8262283129       38.6751430403
  N        -3.6740520253       16.1618562733       38.8367657539
  O        -3.0534776554       17.9824301901       37.5584250840
  S        -4.4195859006       13.9537068388       40.1439204809
  C        -3.9194461234       16.9509400132       40.0586498540
  H        -4.4976305539       17.8077110346       39.6882231850
  H        -4.5571963378       16.4511299488       40.7091414656
  C        -2.5993819703       17.2981853993       40.7564834897
  H        -1.7320573340       17.3426293919       40.0472137795
  H        -2.6510882275       18.2364858892       41.3679617115
  H        -2.3912166749       16.3888508550       41.2646851710
