352
 i =    39500, time =    39500.000, E =        24.8540879278
  H        10.6863418760        7.2828817537       32.3864087510
  C        11.2154772293        6.2647550771       32.4082766056
  H        12.2653160286        6.4952056587       32.2980199295
  C        10.5630409953        5.4759809851       31.2249104417
  C        11.0157209746        5.5425804994       33.7643972159
  C        11.1378849207        5.9260839158       29.8612564263
  H        10.7746741357        4.4216457526       31.3087753369
  H         9.5158339531        5.5560290295       31.2408327600
  H        11.8767621219        4.9047155812       34.0845159220
  H        10.7761093863        6.2830187814       34.5696688999
  H        10.1371745016        4.8974904532       33.7689669732
  C        10.3191884157        5.2002552466       28.8185075381
  H        12.1165659630        5.4951840803       29.8217322266
  H        11.1260024822        7.0069425164       29.7681330549
  C        10.7149194678        5.7054292050       27.4111608021
  H        10.4204041552        4.1275544929       28.8413417668
  H         9.2736790414        5.2774027811       29.0810167303
  C         9.9472499550        4.9886652373       26.2689723250
  H        11.8363941703        5.6535814539       27.3024543486
  H        10.5135192503        6.7693470653       27.5099985282
  C         8.6903500976        5.8109264188       25.9198625620
  H        10.5953058879        4.8216355183       25.4163045189
  H         9.6925642714        3.9515925305       26.5089597268
  C         7.5992251951        4.9432680717       25.2885459981
  H         8.3452512696        6.1010913028       26.7959911704
  H         9.0158920432        6.6810366819       25.2779838744
  C         7.3416636610        3.5873254810       25.9957625213
  C         7.9824151725        4.1661456579       24.0390946405
  C         6.3061693401        5.7741433607       24.9808591517
  C         7.5251329424        2.4879322016       25.2151134329
  C         6.8080278301        3.3039367344       27.2978122875
  C         8.0516101240        2.8388487180       24.0120888709
  C         8.3774844278        4.8892694006       22.9343929396
  H         6.4110397353        6.4742274101       24.0912198487
  H         6.2852299831        6.4114111871       25.8467147615
  C         5.0894091024        4.9812814830       24.7281154395
  S         6.9638588495        1.0820257485       26.0248528823
  C         6.5355516306        1.9858320613       27.4542971232
  H         6.4300596628        4.1680115132       27.9488690927
  C         8.3317925911        2.2845337981       22.8257640267
  H         8.4268709130        5.9801016096       22.9526007446
  C         8.7437932396        4.2712047945       21.7705342610
  H         5.2846861143        4.5669039437       23.7635781233
  H         4.9758574395        4.1453677145       25.3892092471
  C         3.7612010663        5.7969753026       24.7251336030
  C         6.0471741367        1.3153947822       28.6445656706
  C         8.6652648542        2.9221699363       21.6606109024
  H         8.2583190928        1.2084184049       22.6892292596
  C         9.0742174847        4.6578424351       20.5084039998
  H         2.9948925770        5.3720911584       24.0537343829
  H         4.0219574243        6.7472372396       24.3613919428
  C         3.3212518657        6.0037254429       26.1716086266
  C         6.1263047599       -0.0497864614       28.9020005691
  C         5.6297346243        2.1820761273       29.7864109359
  C         9.0387464615        2.2192316219       20.4116506541
  C         9.1541004715        3.5974061370       19.6689293912
  S         9.3483165776        6.1624489465       19.7823118683
  H         2.7334196733        6.9010577245       26.3756812385
  H         4.2272968106        6.2234927339       26.7646724276
  C         2.5989595033        4.7173550407       26.6977456636
  N         6.4489157871       -1.0467288377       27.9687974722
  C         5.7953105299       -0.6677671994       30.0909664724
  C         5.3854631049        1.6364406989       31.0162693344
  H         5.5887265129        3.2714586751       29.7511914398
  C         7.8850933656        1.3734592132       19.7741081321
  C        10.2946884241        1.3330067990       20.5722073498
  C         9.3533246047        4.0057949001       18.3786974721
  C         9.5353842981        5.3955177207       18.3142765523
  H         1.9681872608        4.4128816539       25.8701604945
  H         3.3747104269        3.9128374861       26.8876110290
  C         1.7055913338        4.8138331360       27.9244952707
  S         6.3259022968       -2.5567702352       28.6352570037
  N         5.8126434093       -2.0492666503       30.0849750317
  C         5.4215192983        0.1714012433       31.2041354927
  H         5.1083458990        2.2782490013       31.8315558669
  H         7.6437576614        0.7151977023       20.5635943684
  H         8.1472243504        0.7693660643       18.9873398041
  C         6.6159279768        2.2724272779       19.3833066433
  H        10.6081497608        0.9365818569       19.6094035752
  H        10.0280587946        0.5636110325       21.2724644610
  C        11.5107782017        2.0644457664       21.1036998961
  H         9.4001852919        3.3093107750       17.5464269611
  C         9.8691694842        6.1008125093       17.0801970763
  H         1.2270674645        3.8843647370       28.1131904137
  H         0.9150820977        5.5898010666       27.7329866611
  C         2.5339565275        5.1686341459       29.2060955606
  C         5.2253413328       -0.4823085416       32.4242482977
  H         6.8549822975        3.0662105725       18.6565963517
  H         6.2343570006        2.8925775532       20.2569777478
  C         5.3963915729        1.4296433533       19.0080826365
  H        11.2692453260        2.4907664639       22.0632935193
  H        11.7147224059        2.9044589704       20.3963297440
  C        12.6418724484        1.0525721994       21.2906712370
  C         9.9899451210        7.5572194875       16.9694456195
  C        10.0726638004        5.3159792817       15.8649327145
  H         3.3833545355        4.5149579512       29.2890087476
  H         3.0386643561        6.1360527172       28.9966947743
  C         1.8240829971        5.1394420516       30.5302502573
  H         5.4356399726       -1.5400401155       32.3529846136
  C         4.9923315009       -0.0362281986       33.6787361739
  H         4.9488594110        1.1086662535       19.9418497220
  H         5.7396328339        0.4981742792       18.6225096200
  C         4.2911251833        2.0771276980       18.1079409902
  H        12.5962805062        0.7538086562       22.3329185580
  H        12.5667670861        0.1260973631       20.6936772053
  C        14.0622606822        1.5347838909       21.0396353670
  N         9.7446543284        8.5224396386       17.9675396524
  C        10.2902445982        8.1334094207       15.7894173931
  C        10.4046303472        5.9424724278       14.6378734043
  H        10.0334601534        4.1890849860       15.9440782311
  H         1.3610967443        6.0898118751       30.7130937759
  H         1.0690229193        4.3313680455       30.5163979067
  H         2.4739694136        4.8422332255       31.3323262272
  S         4.6433625177        1.5591946466       34.2108022760
  C         4.9889992649       -1.0804684315       34.7813748699
  H         4.2908633732        3.1284231261       18.1615445051
  H         4.4953841428        1.7071609235       17.0841328582
  C         2.8142291908        1.6783862329       18.5610842516
  H        14.2832254723        1.9444460390       20.0453208322
  H        14.7765389278        0.7077689637       21.2334328619
  C        14.4461584379        2.5916206561       22.0225637107
  S         9.8510288625        9.9526393409       17.3257568309
  N        10.3108910166        9.5118875870       15.8864181074
  C        10.4954170688        7.4660404044       14.5506078818
  H        10.5531428017        5.3359400026       13.7694630556
  C         4.4446296533        0.8849393981       35.8063394898
  N         4.5976750221       -0.4668521219       35.9198255890
  O         5.1781898077       -2.2887518920       34.4945352636
  H         2.0852973809        2.1903070476       17.9808886743
  H         2.6408773915        2.1068869683       19.5710477652
  C         2.4761853044        0.1824886951       18.7194493768
  H        15.0543691786        3.3958295494       21.4962295700
  H        13.6263000169        3.1541079520       22.3873512749
  C        15.0163290634        2.0133109387       23.3052556412
  C        10.8006319934        8.2698941439       13.4250478469
  S         3.8806379550        1.7502795860       37.2262348140
  C         4.6612016352       -1.1624323639       37.1563556476
  H         3.2351882417       -0.2183941292       19.4300446304
  H         1.4538038438        0.0630739544       19.0055703213
  C         2.7359719363       -0.5559427265       17.3895763563
  H        15.0042657617        0.8892949554       23.4044800298
  H        14.3167334151        2.3205217175       24.0908342407
  C        16.3605787655        2.6326511784       23.6615344310
  H        10.3668727848        9.2533557353       13.4711942558
  C        11.4412995736        8.0498388104       12.2566600521
  H         4.0167589026       -0.7594882112       37.9653738525
  H         4.3249651890       -2.1530529621       36.9986952616
  C         6.0634355055       -1.1105058856       37.6977213656
  H         3.7299753155       -0.5934927381       17.1479889987
  H         2.3724879082       -0.0742709652       16.5455049186
  C         2.4234969224       -2.0422871690       17.5730266628
  H        16.2158710105        3.6166733864       24.2327226265
  H        16.7066750317        1.8902247312       24.3776790313
  C        17.3134875063        2.7222919312       22.4442061758
  S        12.2525704678        6.5534423446       11.8917318238
  C        11.4890512616        9.1375325633       11.2419984178
  H         6.1944594580       -2.0132976472       38.3880305939
  H         6.7754902171       -1.2349684667       36.8826709647
  H         6.1114931626       -0.1784404780       38.2534973867
  H         2.9044894771       -2.6296327418       16.7976211907
  H         1.3254011404       -2.1545890669       17.4922085481
  H         2.7196162695       -2.5374028373       18.5726295129
  H        18.4059562466        2.5492876606       22.6965160163
  H        17.2055211745        3.7631041504       22.0166236955
  H        17.0924244364        2.0050562789       21.5873635554
  C        12.4659662813        7.3613103263       10.2674405669
  N        12.1737173940        8.6818870545       10.1871146718
  O        10.8214512185       10.1790155241       11.2774587085
  S        13.0984358498        6.5956977768        8.8354218560
  C        12.2529973950        9.5463737077        9.0604435307
  H        12.4692976694       10.5108197284        9.5155461941
  H        13.1807282904        9.3758302743        8.5387479957
  C        11.0853035587        9.3974887130        8.0668854195
  H        11.2018454386        8.5666528559        7.3184322547
  H        10.1777440654        9.2023632654        8.6148153206
  H        10.9105729450       10.3120240964        7.5918559807
  H        -2.9197632034       14.8966151023       15.9920487610
  C        -2.8830490829       13.8707594420       16.3529089036
  H        -3.7351593844       13.8680602206       17.0645470404
  C        -1.6430000045       13.6539519576       17.1845387850
  C        -3.1374464114       13.0040723545       15.2080583450
  C        -1.8484268528       14.0543291964       18.7304340501
  H        -1.2972580080       12.5658137972       17.2372181457
  H        -0.8595774815       14.2691252433       16.7424298726
  H        -3.9986735587       12.3080333235       15.2506956937
  H        -3.0717583120       13.6598408571       14.3281821595
  H        -2.2927593637       12.3278894703       15.0267779159
  C        -2.0971146530       12.8744162692       19.7105117940
  H        -2.6595595922       14.7680010009       18.8251241497
  H        -1.0489571262       14.7230995127       19.1314166686
  C        -2.4680664774       13.3694360005       21.1029341520
  H        -2.8775491511       12.1961021221       19.4252545964
  H        -1.1917379164       12.1927330450       19.6395463457
  C        -1.5111762835       12.8133451103       22.1220837237
  H        -3.5263101965       13.1169615197       21.2745224579
  H        -2.3407882694       14.4472841322       21.0787299469
  C        -0.1761230517       13.6059346230       22.2319814669
  H        -2.0371834383       12.9003374695       23.1014134930
  H        -1.3790315107       11.7719010362       21.8620594659
  C         1.0157770709       12.8631032515       23.0649693227
  H         0.2048866172       13.7305420562       21.1936151625
  H        -0.3550287569       14.6241553424       22.7024700509
  C         1.3233680385       11.5221564026       22.4553955820
  C         0.6556303518       12.1428885219       24.3264444512
  C         2.2322097840       13.7550704724       23.2606248754
  C         1.1082076692       10.3926693824       23.2063719592
  C         1.7686713092       11.1384048311       21.1487751428
  C         0.6619333010       10.7779976461       24.4310072926
  C         0.2060685663       12.8500401217       25.4605887190
  H         2.5948738096       14.1130212995       22.2790151801
  H         1.8390618973       14.5922865282       23.7391105021
  C         3.4203282487       13.0406551435       23.8714154507
  S         1.7543596970        8.8998055120       22.4977174145
  C         2.0822755809        9.7985377373       21.0502283179
  H         2.0612954251       11.9725328609       20.5325195723
  C         0.4005094619       10.2395614187       25.6365496012
  H         0.1079332236       13.9358502580       25.3495577024
  C        -0.0473204654       12.2567086099       26.6736689608
  H         3.7841801955       12.2114655215       23.3027236187
  H         3.0896407302       12.6360902548       24.8421934903
  C         4.6949219576       13.9559717356       24.1191964381
  C         2.6856211299        9.1223604145       19.8375677446
  C         0.1178394302       10.9389423338       26.8080989475
  H         0.3953320697        9.1671204456       25.7763319493
  C        -0.3452689195       12.6138727684       27.9428883930
  H         5.2838712498       13.5887431327       24.9984145748
  H         4.3953477028       14.9561695351       24.3788950951
  C         5.5769471400       14.0828072264       22.8693934469
  C         2.7216443157        7.6878352772       19.6331698210
  C         2.9945968116        9.9531873195       18.6548026332
  C        -0.2648391322       10.2498690845       28.0478289037
  C        -0.4832924196       11.5631662914       28.8233774816
  S        -0.6558012186       14.1528827543       28.6673834160
  H         6.2580279216       14.8933788314       22.9425399368
  H         4.9327598818       14.2683263696       21.9663481404
  C         6.4951212958       12.8327737264       22.5432718633
  N         2.2539620690        6.7653042452       20.5415328139
  C         2.9333189671        7.1300972972       18.3792442240
  C         3.1897335629        9.3888276715       17.4296826420
  H         2.8089277360       11.0316342575       18.6665098236
  C         0.7933254401        9.3701038064       28.7741818705
  C        -1.5793507263        9.4194432443       27.8946854132
  C        -0.8513742410       11.9891407652       30.0940015937
  C        -0.9817119231       13.3873822705       30.1952380643
  H         7.3320810390       12.6891854631       23.2152673473
  H         5.9258499141       11.8740090648       22.4023958324
  C         7.3756113130       13.1024556126       21.3092974885
  S         2.2041183981        5.3040271860       19.7861085738
  N         2.8100512643        5.7303127514       18.3557417363
  C         3.1215305791        7.8811206018       17.2430969620
  H         3.1264880353       10.0318079401       16.6247753998
  H         1.1327920235        8.6193215327       27.9958207267
  H         0.2859810901        8.8722643015       29.6223198901
  C         1.9426515850       10.2677991707       29.2283138636
  H        -1.4998464993        8.8268888725       26.9957935339
  H        -1.8899561833        8.6516180666       28.5895501719
  C        -2.8291691443       10.2774634104       27.6352110687
  H        -0.8617570562       11.2990896417       30.8848664889
  C        -1.4146087910       14.0811526893       31.4471216400
  H         7.7989130256       12.1667649491       20.9729871470
  H         8.2662233056       13.5953579355       21.5960537408
  C         6.5972341252       13.6878208000       20.0897742655
  C         3.3150702602        7.1574304652       16.0542648322
  H         2.3265619527       10.7808828699       28.4155094340
  H         1.6482925212       11.0233898172       29.9217890637
  C         2.9773955403        9.5448863283       29.9362018353
  H        -2.6217023946       11.0987175562       26.8998268504
  H        -3.1979296071       10.9052651008       28.4807159892
  C        -4.0350752312        9.4636038744       27.2290391699
  C        -1.3917534870       15.4339900203       31.6966165550
  C        -1.6957944091       13.2688694856       32.6712422383
  H         6.0811227953       14.6457725360       20.2662983295
  H         7.2999198573       13.9043494167       19.2931534144
  C         5.6973789607       12.7763219187       19.2877184152
  H         3.0347447068        6.1372035112       16.0954484282
  C         3.6186880944        7.4824402597       14.7563092130
  H         3.3396593799        8.7293806593       29.3571065124
  H         2.5350315246        8.9385879854       30.7932181069
  C         4.1276654936       10.4324818885       30.1999616081
  H        -3.7795715970        8.8522224263       26.3583729262
  H        -4.2991376824        8.7966950455       27.9854782108
  C        -5.1072327925       10.5197699221       26.8062281261
  N        -0.9683280344       16.3380255579       30.6642676530
  C        -1.8022906101       16.0604622006       32.8196620540
  C        -1.9880374897       13.8240491858       33.8990728306
  H        -1.6287646779       12.2218479903       32.6019591328
  H         6.2355226298       12.6109397700       18.3664799450
  H         5.5439305983       11.8555337744       19.8052348350
  H         4.7085320418       13.1805006115       19.0306999002
  S         3.8286242245        9.0961149192       14.2079885034
  C         3.7679543189        6.3902686918       13.7294157419
  H         4.2768406636       11.2346918906       29.4762616913
  H         3.8989517508       10.9646374021       31.0680397863
  C         5.4851157312        9.7945210832       30.3526330647
  H        -4.8415184340       11.2287417254       26.0350234585
  H        -5.3763928002       11.1431679721       27.6674602044
  C        -6.3517050906        9.7552164041       26.2827033009
  S        -1.1114024031       17.8543741891       31.2366239051
  N        -1.7629803090       17.4599459736       32.7017134034
  C        -2.1609206101       15.3260576497       33.9762001864
  H        -2.1158759210       13.1383614965       34.7239201790
  C         4.2384556776        8.3607329161       12.6513651802
  N         4.0775903165        7.0059067513       12.5855956332
  O         3.6687043822        5.1975384685       13.9222618195
  H         6.0975889117       10.5573812054       30.8999602973
  H         6.0096445356        9.7151751764       29.4168046495
  C         5.4884295680        8.5386958769       31.2041102066
  H        -5.8653003560        9.0185416995       25.6702867009
  H        -6.9802700358        9.3715832415       27.0955993305
  C        -7.1626537950       10.6576571373       25.4099743996
  C        -2.6110967884       16.1195832650       35.1431367754
  S         4.5917269708        9.3364814266       11.2420880450
  C         4.0117138926        6.1955230581       11.3069832051
  H         5.9615636760        8.6863276890       32.1865637916
  H         4.4579768254        8.2453230020       31.4013656341
  C         6.0957514142        7.3001075603       30.5160614400
  H        -6.7194383022       10.8157334082       24.4607470855
  H        -7.2189941492       11.6668797308       25.8153522403
  C        -8.5688342271       10.0825544447       25.0550464230
  H        -2.3836917911       17.2114061066       35.1254511331
  C        -3.1383410166       15.7308081191       36.3731013541
  H         4.7925615021        6.6003346028       10.6181864728
  H         4.2888232680        5.1718050283       11.5373004726
  C         2.5556699804        6.1868762094       10.7434179064
  H         6.8624481166        7.7027544467       29.8691171948
  H         5.3870659373        6.7347489856       29.8455839678
  C         6.6467840651        6.3711832558       31.6244688924
  H        -9.0774775652       10.5397450114       24.1653112695
  H        -8.5390422925        9.0631617627       24.7922233115
  C        -9.6228723987       10.2375477596       26.1223748851
  S        -3.8387071918       14.2089802545       36.8619091989
  C        -3.2953582324       16.7890512067       37.4391820519
  H         2.2435710802        5.2019619203       10.6195844127
  H         1.9111163133        6.6156993516       11.4519947947
  H         2.5078284907        6.8300527410        9.8611718926
  H         7.3657731467        6.7735308342       32.2722444261
  H         7.0560185715        5.4284556652       31.3483978092
  H         5.8798213740        6.0190586244       32.3239044331
  H        -9.6617818322       11.3410598501       26.3896363630
  H        -9.4166676112        9.6470436007       26.9872970917
  H       -10.6067569758        9.9247075065       25.7887614176
  C        -4.0979129832       14.9014123231       38.4475576531
  N        -3.7911107802       16.2209418360       38.5742244446
  O        -2.9021685005       17.9405622863       37.2836943952
  S        -4.4408142668       14.0641202179       39.9994652572
  C        -3.9673023926       17.0971593277       39.7612316044
  H        -4.0036680949       18.1093492709       39.4045984754
  H        -4.9616527020       16.8999014860       40.1957924729
  C        -2.7655766054       16.8570267021       40.6642155175
  H        -1.8442615214       17.2761889622       40.2795560456
  H        -2.9203038281       17.0920330469       41.6697631531
  H        -2.6824108716       15.7740930228       40.6571651540
