352
 i =    66300, time =    66300.000, E =        24.7838208792
  H        10.9643824096        4.3373336761       31.3339754173
  C        10.9754653302        5.3600936101       31.6985620723
  H         9.9102705601        5.5024277512       32.0947545958
  C        11.2845642617        6.3940197604       30.6149049183
  C        11.8654649536        5.3098316343       33.0071642290
  C        12.5067921784        5.9548494755       29.7203422698
  H        10.3766587010        6.6112233487       30.0300813207
  H        11.5659625817        7.2637341356       31.2321956843
  H        11.5182323204        4.6725385623       33.8389576161
  H        12.8021530929        4.8730304704       32.7219270474
  H        11.9206872446        6.3418659713       33.4807815829
  C        12.0990564338        5.1455487760       28.5497939847
  H        13.2123829197        5.3704940164       30.3059425719
  H        13.0209846619        6.8498226006       29.3576464301
  C        11.1866524527        5.8228842189       27.5648479390
  H        12.9463274112        4.8021306760       27.9978091532
  H        11.6110780210        4.2974382922       28.9144451128
  C        10.1142923385        4.8802761717       27.0428297904
  H        11.7369226177        6.0404825416       26.6434284351
  H        10.7225451253        6.7170982373       27.9385757804
  C         8.9418235211        5.7101577039       26.4633762725
  H        10.6483375201        4.4630834146       26.1778498164
  H         9.7152111386        4.1591751417       27.8478345561
  C         7.8591731304        4.9358812915       25.6744517694
  H         8.4560027025        6.0908680678       27.2434837908
  H         9.2072856001        6.5867207264       25.8095251946
  C         7.5254717297        3.6053634606       26.2617305632
  C         8.3036191565        4.1885914206       24.4279968101
  C         6.7437208348        5.8161256368       25.1213846345
  C         7.6171511739        2.5079823222       25.3841677455
  C         7.1549766766        3.1848132696       27.5738230316
  C         8.0848374505        2.9192371491       24.1543402181
  C         8.8612795344        4.9250505255       23.3164429506
  H         6.4112449939        5.2854597097       24.1766637990
  H         7.0602901084        6.8300281211       24.8709157990
  C         5.5356631835        6.1066047332       26.0326949642
  S         6.8951548184        1.1136032169       26.0132655313
  C         6.8898473122        1.8405432327       27.6091210703
  H         7.0805596500        3.9921253038       28.2937539898
  C         8.3957463573        2.4098892459       22.9154394642
  H         8.9243263859        6.0448605560       23.3547272051
  C         9.1114668595        4.3995471536       22.0638442615
  H         5.3417094977        5.2210851200       26.6111824669
  H         5.8315178006        6.9156579324       26.6383316117
  C         4.2434765557        6.4995202822       25.3276386815
  C         6.3391961456        1.1295930625       28.8235790550
  C         8.8691178224        3.0671564852       21.8038994245
  H         8.4467462452        1.3341194287       22.6998804104
  C         9.4128684342        4.7955341461       20.8107625175
  H         3.9941751090        5.7439521620       24.5298198366
  H         4.2434119403        7.4560536969       24.8290790054
  C         3.1759128989        6.5313989170       26.4230189569
  C         6.2309515031       -0.2851209621       29.0553855022
  C         6.0483793312        1.9536435105       30.0273973857
  C         9.1023654556        2.3921564906       20.4614909835
  C         9.4564030467        3.7604820104       19.9151539652
  S         9.6495367946        6.3186073779       20.0681803694
  H         2.4464211679        7.2635662864       26.1081527032
  H         3.4887967978        7.0518170912       27.3863840909
  C         2.5264553518        5.2519504022       26.7533071230
  N         6.4938526214       -1.2305714225       28.0698858902
  C         5.8481923594       -0.8612276800       30.2410701169
  C         5.6792965631        1.3514418973       31.2283652171
  H         5.9450841789        3.0368970300       30.0014031392
  C         7.8664416069        1.7094093363       19.8031980677
  C        10.3169275861        1.4232630159       20.5805093184
  C         9.7587009675        4.2026947823       18.6390313858
  C         9.9570220020        5.5471517080       18.5648500912
  H         1.7303283741        5.0042496953       25.9915608455
  H         3.2067953130        4.4136160915       26.8034008793
  C         1.6924672989        5.3304100804       28.0787296042
  S         6.1021015319       -2.7295185019       28.6445375602
  N         5.7840841863       -2.2467317276       30.2068651918
  C         5.6518123151       -0.1490290604       31.3951860355
  H         5.4519025925        1.9985358669       32.0367398753
  H         7.4691895780        0.8348249372       20.3376843495
  H         8.0851315319        1.2644501732       18.8298819969
  C         6.7625388484        2.7467728456       19.5477335335
  H        10.4961970359        0.8388837745       19.7104730539
  H        10.0738848418        0.5942222835       21.3291100373
  C        11.5683172693        2.2055918491       20.8641870830
  H         9.7421256323        3.4105392506       17.8797057496
  C        10.2659585654        6.2093997117       17.2608764756
  H         0.8134483156        4.7596198985       28.1494430691
  H         1.2820363212        6.3816011223       27.9254114718
  C         2.4556277939        5.0854344391       29.3219384976
  C         5.3101156713       -0.8226834860       32.6297451070
  H         7.0025153056        3.4962020347       18.7713029257
  H         6.7508259228        3.2931559054       20.5051504370
  C         5.3628907756        2.2343345866       19.3286194315
  H        11.3876804050        3.0656591597       21.5541541691
  H        11.9776505298        2.7559817665       20.0603357119
  C        12.8046981115        1.3601644974       21.3188476444
  C        10.3470237097        7.6657281593       17.1115284668
  C        10.3605954272        5.5153146493       15.9685708164
  H         2.8625553320        4.0553819470       29.2317750213
  H         3.2539593039        5.8005243855       29.3721520401
  C         1.7404717475        5.2711131012       30.6092630189
  H         5.4672624072       -1.9189811276       32.6335247497
  C         4.9768431688       -0.4264399152       33.8932434896
  H         4.7341491825        3.0857986590       19.3230027621
  H         5.1399006729        1.5135086063       20.0714058855
  C         5.2498699237        1.6805532611       17.9191698911
  H        12.5457580963        0.5872376344       22.0900415749
  H        13.0599561329        0.7252986015       20.4233832706
  C        13.8894869064        2.2942381277       21.8291259035
  N        10.0941467665        8.5129273996       18.1356456454
  C        10.6007808613        8.2396155068       15.8829503266
  C        10.7068460409        6.1427802244       14.7675474554
  H        10.3106127710        4.4190460636       16.0965570637
  H         1.0932785940        4.4833201778       30.8291842505
  H         2.3776915652        5.2639135639       31.5469767640
  H         1.2096082649        6.2373709236       30.5627462430
  S         4.7857574215        1.1689308453       34.5649750977
  C         4.6900747220       -1.5138434960       34.8318657816
  H         5.5652592415        2.4676835212       17.1967804886
  H         5.7015017008        0.7543142532       17.6922319485
  C         3.8021947508        1.3189224801       17.6781048150
  H        13.5645532907        2.9279761258       22.5753652045
  H        14.1772731534        2.9905972011       21.1321035708
  C        15.0332386627        1.4756405080       22.3675645762
  S        10.1024890204        9.9866886902       17.5171755024
  N        10.6356027160        9.6328206113       15.9919229554
  C        10.7724997091        7.5849908776       14.6839954132
  H        10.8629378790        5.6289135791       13.8052898652
  C         4.2850256402        0.3793108615       36.0362348970
  N         4.4333971008       -1.0057558909       36.0670945604
  O         4.8466579890       -2.6918283847       34.5905978172
  H         3.7230862877        1.3656997587       16.5594968038
  H         3.2005008207        2.2070807192       18.1784153686
  C         3.4328344989       -0.0448355670       18.3635820535
  H        14.6399504687        1.1774900583       23.3559305359
  H        15.1540648519        0.5141535426       21.7857303418
  C        16.3486577293        2.1530646083       22.3365523104
  C        11.0752465145        8.3710405450       13.5420650319
  S         4.0415848984        1.0410551695       37.6294672391
  C         4.3512783306       -1.9481890632       37.1747725026
  H         4.0378327681       -0.2615764822       19.2468859202
  H         2.3765048821        0.0240631209       18.7538156215
  C         3.4872560612       -1.1764990799       17.4484801410
  H        16.2952164284        3.0658231710       22.8662490169
  H        16.5786889123        2.4685659809       21.3383325793
  C        17.4839211156        1.2597362278       22.7741583830
  H        10.7233049274        9.3723450866       13.6028001687
  C        11.5596824635        8.0443014376       12.2859375474
  H         3.7101118909       -1.5461040880       37.9179900811
  H         3.9847262354       -2.9437272184       36.7587150240
  C         5.5682427597       -2.0803461138       38.0379212631
  H         3.5014247093       -2.1208985742       17.9779534013
  H         4.4129185271       -1.1302286825       16.9205235450
  C         2.2914550836       -1.2413347405       16.4526038968
  H        17.1263580857        0.6192895033       23.5539193451
  H        17.7422451939        0.6741343639       21.8826166051
  C        18.6614012758        2.0779770396       23.2208204497
  S        11.9510523222        6.4586784623       11.6850722409
  C        11.7275243752        9.0967839812       11.2729361283
  H         5.5266649444       -1.3208495641       38.8387514151
  H         5.7441203415       -3.0262090175       38.4770387835
  H         6.4812000800       -1.8072415720       37.4961016744
  H         1.3670831037       -1.4136420314       17.0261645329
  H         2.4691343116       -2.0616147358       15.7461884701
  H         2.2744766387       -0.3018230465       15.9168809864
  H        18.4456613421        2.4361325451       24.2018018338
  H        18.7071480554        2.9287673536       22.5919100069
  H        19.6170997609        1.5209701866       23.1065463502
  C        12.3536620336        7.2653695359       10.1699706121
  N        12.2324010042        8.6025101712       10.1417970167
  O        11.4969606775       10.2679763821       11.4317456252
  S        13.0378180160        6.6287040690        8.7241017146
  C        12.1802148230        9.5323659047        9.0659214951
  H        12.5072450252       10.5449500434        9.4113203390
  H        12.7988987286        9.3287350081        8.1673042114
  C        10.7522913348        9.4989864047        8.5334250750
  H         9.8717492386        9.2144420292        9.2031889905
  H        10.4252753827       10.4672663168        8.1074235129
  H        10.6451861177        8.7519374219        7.8046636548
  H        -1.2524361294       12.9867430818       16.9231804723
  C        -1.7390514546       13.8734011132       16.4382124603
  H        -1.1880797117       14.7781222624       16.3154605053
  C        -2.8014092649       14.2170976456       17.4499891666
  C        -2.1505500886       13.4269843694       15.0333185951
  C        -2.1510147457       14.6271751878       18.8075921729
  H        -3.6150571061       14.9141452999       17.1188734904
  H        -3.3306605976       13.2922998510       17.5403746549
  H        -1.2142277544       13.3042270000       14.4675885040
  H        -2.7516429909       12.5286132884       14.7280257436
  H        -2.7123237011       14.2717734158       14.6396237755
  C        -1.9810683969       13.4931344071       19.8880054734
  H        -2.7565052207       15.3747164802       19.2522453604
  H        -1.1132194328       15.0294859499       18.6383416022
  C        -1.8548260634       14.0739661960       21.3189439234
  H        -2.7628327663       12.7836676836       19.8721044682
  H        -1.2426027235       12.8304141542       19.5820490300
  C        -0.8814995690       13.3019544917       22.1956845305
  H        -2.8035860800       14.0826013539       21.8003081601
  H        -1.5861041412       15.0981788441       21.2058253770
  C         0.4536096185       13.9900700035       22.2807265585
  H        -1.3236652483       13.0048790151       23.1779758170
  H        -0.7651171613       12.3914731892       21.5768747312
  C         1.6214936254       13.1498053757       22.9492473973
  H         0.7864779463       14.1672688772       21.2761032444
  H         0.2233435945       14.9422961306       22.6600336001
  C         1.9820674254       11.8352866665       22.2788509415
  C         1.1988233508       12.3825683842       24.1522360199
  C         2.8806472296       14.0819622724       23.1044851294
  C         1.8139384931       10.7168408862       23.0761754990
  C         2.4792272928       11.5313301542       21.0462806161
  C         1.3576868724       11.0862211320       24.3066514610
  C         0.7612590066       13.0197483789       25.3323583773
  H         3.1962519183       14.4128680388       22.1114548664
  H         2.6290021084       15.0167330967       23.5822171486
  C         4.0381090875       13.3907414107       23.8548128055
  S         2.0923199147        9.1969895910       22.3070472738
  C         2.6454420059       10.1267440713       20.9117839974
  H         2.6371622370       12.2777338152       20.2936358715
  C         0.9106338260       10.4708104164       25.4395700098
  H         0.7299604233       14.1185091148       25.2750883814
  C         0.3385605059       12.4436467265       26.4703557867
  H         4.3652877203       12.6411392920       23.1318684434
  H         3.7291719242       12.8557125469       24.7564399561
  C         5.2601850394       14.2828066010       24.0644715676
  C         3.1642482492        9.4712619852       19.6637931969
  C         0.3703196513       11.1035124845       26.6057843988
  H         1.0522168661        9.3887103059       25.4902536853
  C        -0.2255670074       12.8052784534       27.6883796291
  H         5.8687044284       13.7765912224       24.8115804426
  H         4.9610912449       15.2307819569       24.4834757634
  C         6.1469235114       14.6422779031       22.8733161358
  C         3.2126359124        8.1011795499       19.3804316057
  C         3.6153217099       10.2724955186       18.5175287745
  C         0.0452453973       10.3337088042       27.8537161613
  C        -0.2472282868       11.7017113266       28.5352266763
  S        -0.6604045516       14.3451573977       28.3828120532
  H         6.7573044473       15.5215576497       23.2032354874
  H         5.4047958231       14.9868121321       22.0952473363
  C         7.1133795678       13.5170856545       22.4398445991
  N         2.9464416160        7.1513601462       20.3700558230
  C         3.4167504434        7.5379911679       18.1646587706
  C         3.8071827919        9.7383253508       17.2742657951
  H         3.6340781158       11.3574066790       18.6870824847
  C         1.2608013169        9.7691714518       28.5990172821
  C        -1.1601752682        9.4528875954       27.7488604221
  C        -0.5712073395       12.1132869779       29.8089801333
  C        -0.8844961479       13.4680262561       29.8449761382
  H         7.8820840582       13.4486425756       23.1813039046
  H         6.6453759890       12.5317777534       22.4204782144
  C         7.8574145501       13.8028779240       21.1965828365
  S         2.9235907266        5.6902570376       19.6513530186
  N         3.1512732014        6.1584556605       18.1345160290
  C         3.7167959434        8.2627416169       17.0077540933
  H         4.1761293832       10.4565236839       16.5250207355
  H         1.4330085503        8.7645381778       28.1927977987
  H         0.8288017059        9.5227241400       29.6165862421
  C         2.4646813188       10.6228068981       28.7528503046
  H        -1.0322671139        8.7643801615       26.9269399627
  H        -1.2882341621        8.9112924246       28.6599796865
  C        -2.4250260194       10.2309680130       27.4133584182
  H        -0.6813916041       11.3058387493       30.5056970875
  C        -1.3575234677       14.2227730526       31.0780488451
  H         8.6179370673       13.0782731635       20.9464282971
  H         8.3062619650       14.7938056256       21.3126511631
  C         6.9299170779       13.9212181440       20.0426097049
  C         3.8826945156        7.5942873133       15.7695138978
  H         2.7847277477       11.1128741727       27.8700133806
  H         2.3347433792       11.3883616367       29.5163543231
  C         3.6386659662        9.7484213698       29.1720173694
  H        -2.2112922910       10.6474407940       26.3752208604
  H        -2.6161093883       11.0283447362       28.1144286619
  C        -3.6598595684        9.4085365000       27.2527449839
  C        -1.4278891329       15.6168735484       31.3495199726
  C        -1.5212339751       13.4161045254       32.3303560710
  H         6.1882756191       13.0819047577       20.1526138421
  H         6.2322277235       14.7037521575       19.8947183017
  C         7.6861869641       13.7751117114       18.7111243575
  H         3.8363401996        6.5411319076       15.7502967252
  C         4.0498672403        8.0467059803       14.4862724641
  H         4.3202981292        9.6615895996       28.3428260412
  H         3.3406420034        8.6857780267       29.1772128493
  C         4.3320080728       10.0808183776       30.5144919736
  H        -3.5214192551        8.7349537227       26.3466749185
  H        -3.9644155589        8.8223796307       28.1284853049
  C        -4.8632892125       10.2808958094       26.8438237811
  N        -1.1112151726       16.6007269752       30.3824591329
  C        -1.6678399927       16.1850971572       32.6085059090
  C        -1.6648542930       14.0240839525       33.5857616055
  H        -1.2842243676       12.3742233884       32.3551626276
  H         8.2280964770       14.7087692357       18.5431684311
  H         8.2912575047       12.8758776919       18.7149177502
  H         6.9619374305       13.7436821665       17.8734284947
  S         4.3374948420        9.6869686418       13.9996475803
  C         4.1482494465        7.0182948849       13.3656703931
  H         4.6501898074       11.1278316936       30.5159255897
  H         3.8423023276        9.9052042950       31.4566210050
  C         5.5262139878        9.2063956555       30.7997065836
  H        -4.5209769076       11.0435497862       26.0994246959
  H        -5.2911244428       10.8233094392       27.7379788740
  C        -6.0465108509        9.4677054366       26.1903940785
  S        -1.2216784755       18.0761846824       31.0308069213
  N        -1.6057749364       17.5812995364       32.5355807214
  C        -1.9522055763       15.4303338689       33.7883909329
  H        -1.7859000755       13.3067859735       34.4209407051
  C         4.6483765471        8.8810820681       12.3250097001
  N         4.5373879553        7.5591402389       12.2884529897
  O         3.9315821560        5.8133540950       13.6204719337
  H         5.9892974615        9.4868533227       31.7159847235
  H         6.2995949927        9.4750474201       30.0865569993
  C         5.2383690229        7.6847206903       30.6792977087
  H        -5.6520136109        9.0005438465       25.2732904768
  H        -6.4218215007        8.6452598185       26.7671435165
  C        -7.1086637012       10.4558775368       25.8060256090
  C        -2.1606055985       16.0992501454       34.9760586950
  S         4.9232434927        9.7218804620       10.8033534236
  C         4.5557142110        6.8667007104       11.0184241268
  H         4.2081357891        7.3543385454       30.9394395505
  H         5.1571242503        7.5545929433       29.6139205454
  C         6.3168674294        6.8412582752       31.1723432998
  H        -6.7486700084       11.2131404929       25.2470054588
  H        -7.4117142119       10.9963822077       26.6765006409
  C        -8.3842454942        9.8106602779       25.0321944044
  H        -1.8764009613       17.1061793887       35.0127795441
  C        -2.6676117434       15.6839779160       36.2315414405
  H         5.1968915796        7.2908853133       10.2600285033
  H         4.9095373807        5.8393744630       11.1729172317
  C         3.2151017495        6.7513930695       10.3584241196
  H         5.8825906488        5.8495324502       31.3013590080
  H         6.6722754932        7.1627406651       32.1093683844
  C         7.4684383048        6.7838213294       30.2676166214
  H        -8.5444140352       10.4578914487       24.1728192635
  H        -8.3640758319        8.7353282334       24.7044416006
  C        -9.5669510868        9.8144011253       25.9829465464
  S        -3.1697233048       14.1073685938       36.6808300326
  C        -2.6956176573       16.7460835419       37.2761989558
  H         2.5273948421        6.2972902919       10.9007682119
  H         2.7106701659        7.6893705915       10.3637194439
  H         3.1357421045        6.3270265813        9.3529120009
  H         8.2512023850        6.2790237739       30.7546867003
  H         8.0676554855        7.6689457901       29.9693324754
  H         7.1813145543        6.4045219368       29.2632798942
  H        -9.7795881144       10.6788480861       26.5871296945
  H        -9.4431797767        9.0517395297       26.7048108751
  H       -10.4580025808        9.6067178730       25.4118225238
  C        -3.4999035188       14.7432318535       38.2655082364
  N        -3.3303032806       16.1140722229       38.3445541801
  O        -2.3445929982       17.9094027475       37.2486383479
  S        -4.1369738757       13.8446737174       39.6526673530
  C        -3.6937740443       16.9085103237       39.6006613657
  H        -3.9680633743       17.9416010561       39.3124171669
  H        -4.5177913856       16.4705184360       40.1146126400
  C        -2.4956795703       17.0265691463       40.5087197809
  H        -1.5752070149       16.9694722987       40.0381212430
  H        -2.6076562906       17.9223100050       41.0209154915
  H        -2.5357914593       16.2066261137       41.2233172575
