352
 i =    76000, time =    76000.000, E =        25.2410848991
  H        10.0092813657        5.1361398422       31.7452292950
  C        10.5322382422        5.9875504278       32.2491378301
  H         9.6159254476        6.6724589856       32.5666609184
  C        11.4934989880        6.7046112841       31.2978535729
  C        11.1972094711        5.5286659647       33.5334661127
  C        11.4291967482        6.1793717838       29.8743427315
  H        11.2981971594        7.7614876475       31.3988204343
  H        12.5061884021        6.5687053303       31.6171883684
  H        10.4905523658        5.2798895601       34.3193435615
  H        11.5881421282        4.5425489687       33.2641006126
  H        11.9417207528        6.3464998564       33.7408764625
  C        10.1857168023        6.3654570383       29.0413734885
  H        11.5711146702        5.1049607826       29.9077560076
  H        12.2046592527        6.5805855430       29.2386161283
  C        10.4437947438        6.1771053712       27.4592568708
  H         9.2728761015        5.9124482156       29.3776556733
  H         9.9173938867        7.4513064742       29.2229366733
  C         9.4470325362        5.2198536028       26.6401480636
  H        11.4489489806        5.8831597860       27.2869402965
  H        10.5737401606        7.2096132935       27.0557830161
  C         8.1649336188        5.9715536350       26.1997534721
  H         9.9716902085        4.7982173662       25.7205274256
  H         9.2246445050        4.3715106155       27.2354403940
  C         7.2392396484        5.0793961244       25.3119750543
  H         7.6449189859        6.2184855625       27.0781924151
  H         8.3914499755        6.8942268358       25.7692117803
  C         7.0336278829        3.7028606733       26.0074434992
  C         7.8368482780        4.3555860908       24.1236674727
  C         5.9068331359        5.8222736345       24.8855883085
  C         7.2850317918        2.6264508004       25.1752764231
  C         6.5732593926        3.3419596450       27.2580711170
  C         7.8010109937        3.0059838621       23.9913046784
  C         8.3578299011        5.0421650562       23.0453718109
  H         5.4901715588        5.3592406327       24.0195161596
  H         6.1045012016        6.8455110032       24.6940434356
  C         4.7294332939        5.8747944194       25.8839349833
  S         6.8911897531        1.0905715572       25.8839402844
  C         6.5108751182        1.9799502870       27.4008157895
  H         6.2993649611        4.0709007326       27.9633407134
  C         8.2341460218        2.3280255819       22.8910268429
  H         8.4889225652        6.0882280696       23.1869011140
  C         8.7295104960        4.4393334158       21.9123962798
  H         5.1021637119        5.7874528217       26.9937235174
  H         4.4201659992        6.8290056404       25.7304473434
  C         3.4963879181        4.9313575586       25.6824603654
  C         5.9591677677        1.3450631271       28.6387800635
  C         8.5929672825        3.0730303817       21.7335556364
  H         8.1013651274        1.2588746801       22.8056558331
  C         9.1365285771        4.7982345341       20.6455370251
  H         3.7938883928        3.8504059034       25.6785264685
  H         3.0837997894        5.1733317158       24.6823987112
  C         2.3622210596        5.2192083264       26.6533674002
  C         5.9733973412       -0.0228358271       28.8921768052
  C         5.5118309941        2.2138347783       29.7165745037
  C         8.8997734736        2.3646427278       20.4277671915
  C         9.1888228555        3.7531811140       19.7366863503
  S         9.2817667174        6.3373792063       19.9107716976
  H         1.5620866182        4.5352432834       26.3305950536
  H         1.9823672993        6.2159286667       26.3968950340
  C         2.4850332841        5.0042089667       28.2160976106
  N         6.3686039236       -1.0082460347       27.9884705252
  C         5.5743907749       -0.5093766141       30.1024049142
  C         5.0731156089        1.7035016989       30.9089562530
  H         5.3819656802        3.2431517142       29.5874667060
  C         7.5692561057        1.7367959672       19.8065875970
  C        10.1232185911        1.3817710438       20.5023153239
  C         9.5774615680        4.2009576202       18.4491249039
  C         9.7084832454        5.5776290580       18.4404656815
  H         2.5270208047        3.9094088389       28.3744279359
  H         3.4955107850        5.2113110835       28.5934519287
  C         1.4034660044        5.7728516309       29.0361634438
  S         6.3523998059       -2.4360689574       28.7588860484
  N         5.7957795145       -1.9091293094       30.1962322047
  C         5.1387765245        0.2837934058       31.1679299693
  H         4.7820257368        2.3745104414       31.6767991307
  H         7.0909855484        1.0706356952       20.5394486309
  H         7.7993772596        1.2245604434       18.8925802837
  C         6.5630677707        2.8494547184       19.3855596170
  H        10.2918833001        0.9717570412       19.5319488061
  H         9.9290965403        0.5361674569       21.1140225028
  C        11.3761086994        2.2156655553       20.8821075827
  H         9.6321159223        3.4806439850       17.6464458154
  C        10.0990529683        6.4299385425       17.2079589161
  H         0.5595133931        5.9063374067       28.3865435091
  H         1.7456617009        6.7374321284       29.4341030476
  C         0.8901731416        4.8914812409       30.1802087925
  C         4.8808770144       -0.3632562021       32.3996643887
  H         6.8058522323        3.4084556279       18.4506493556
  H         6.2484466251        3.4743318024       20.1903691098
  C         5.2226076568        2.2156417631       19.1224083930
  H        11.1707464486        2.9966834659       21.6485169140
  H        11.7663733324        2.6733611507       20.0007072403
  C        12.4688519835        1.3776531338       21.5276386665
  C        10.1247248173        7.8569099194       17.0342955888
  C        10.4912592160        5.7542472684       15.9312397470
  H         0.0422716976        5.3049471777       30.7743763923
  H         0.4192961745        4.0540931113       29.7869101457
  C         1.9974606531        4.5004732177       31.1480777026
  H         4.9445133136       -1.4463963810       32.3305877712
  C         4.5863519744        0.0513164665       33.6722658946
  H         4.5519699703        3.0020767931       19.0103696385
  H         4.8694995632        1.7577536199       20.0487660571
  C         5.1100158903        1.2346464507       17.9962638335
  H        12.1633822772        0.8340502873       22.4269657440
  H        12.7101878527        0.6729966880       20.8296926908
  C        13.7774153828        2.1445960761       21.6477604880
  N         9.9082923246        8.7687588685       18.0564914046
  C        10.4382096968        8.4642698911       15.7767325739
  C        10.7717008157        6.3578307869       14.7814356181
  H        10.6942041635        4.6805094286       16.0108826989
  H         2.1378965627        5.3655146719       31.7564320840
  H         1.6741588238        3.6820779692       31.7707946741
  H         2.9125142016        4.2827766213       30.7111123854
  S         4.2079333067        1.6332331337       34.1605624957
  C         4.4849305680       -1.0111719508       34.7263631333
  H         5.7262757427        1.5432496609       17.0821288300
  H         5.5258723684        0.2290110227       18.3921353688
  C         3.6685812482        1.1439138033       17.3583329271
  H        13.5492804731        3.1089213606       22.1665825036
  H        14.1629227919        2.3903990958       20.6686486474
  C        14.8354304199        1.3977340505       22.4460338939
  S        10.0863410008       10.2194159234       17.4405907699
  N        10.4365134473        9.8644886796       15.9167062109
  C        10.7446059651        7.8018560492       14.6160831509
  H        10.9142581121        5.7786206485       13.8896489749
  C         4.0877110975        0.8906214705       35.7937216187
  N         4.1173060400       -0.4181414754       35.9183758475
  O         4.6530036243       -2.2008488061       34.5815811310
  H         3.7349093449        0.7818066108       16.3011402857
  H         3.1938424364        2.1189038089       17.2381103180
  C         2.6609569987        0.3267105168       18.1457060438
  H        14.4074526878        0.6340719285       23.1067663377
  H        15.6021184026        0.9094253046       21.8600487078
  C        15.5042445644        2.4613845006       23.3849895098
  C        11.0731204968        8.5702196126       13.5158146160
  S         3.4731703721        1.8740487831       37.1284094917
  C         4.0796391484       -1.1342050511       37.1095023743
  H         3.1894350558       -0.0407742657       18.9853376733
  H         1.8749047394        1.0058502690       18.4404886347
  C         2.2593305170       -0.8946098632       17.3497534917
  H        14.8955781316        2.9384292189       24.1160349860
  H        15.9236315677        3.2553461490       22.8355828052
  C        16.7320062514        2.0077167567       24.0773116823
  H        10.9652847685        9.6334105763       13.5270789425
  C        11.5170127894        8.1429537929       12.2355811722
  H         3.3260853473       -0.6965385761       37.8153866057
  H         3.7077696490       -2.1616010304       36.8764865569
  C         5.4752281295       -1.1835540450       37.7238715299
  H         1.9257269619       -0.6391135126       16.3496930328
  H         1.3411374108       -1.3148831186       17.6335273302
  C         3.3071222243       -2.1088968269       17.3252637423
  H        17.0284900256        2.7723702426       24.8566345633
  H        16.5335904603        1.1095364016       24.6711927747
  C        17.8883908475        1.8118121958       23.1321765918
  S        11.8144030972        6.5190555139       11.7101358361
  C        11.6069952830        9.1893146691       11.1875553584
  H         6.3356264398       -1.5646797406       37.1722534258
  H         5.7665491527       -0.1715671728       38.0655488928
  H         5.3035730023       -1.7655217597       38.6451948168
  H         4.2163723521       -1.7943977115       16.9053377122
  H         2.8837926467       -2.7854573128       16.5898060200
  H         3.4601463067       -2.5700669576       18.3120200474
  H        18.8128793796        1.9746352544       23.7230881824
  H        17.8592921507        2.5621002333       22.3609952514
  H        17.8765030325        0.8231625023       22.6825867231
  C        12.1805353947        7.2987435318       10.0846596474
  N        12.0897868725        8.6479574658       10.0340092357
  O        11.3237523388       10.3658471739       11.4245807791
  S        12.4825574845        6.5275813884        8.6102063029
  C        12.1402518986        9.5530052466        8.8511717263
  H        12.3017777690       10.5681589661        8.9648308911
  H        12.9839236057        9.2292387598        8.1255472267
  C        10.8022591306        9.3116907169        8.2473077445
  H        10.6704691295        9.6765656448        7.2622310949
  H        10.6491030165        8.2375386998        8.1532552789
  H         9.9462331259        9.7334819691        8.8321769068
  H        -3.9619296594       14.8336178523       16.7413812520
  C        -3.6041044374       13.8249773816       16.6397220501
  H        -4.4045404923       13.1208161815       16.8197214646
  C        -2.5052932520       13.6621545696       17.6481273703
  C        -3.0809211992       13.4758707337       15.2736087596
  C        -3.0548546028       13.4449932360       19.0593368794
  H        -1.8675759401       12.8837715373       17.3651788925
  H        -2.0170295866       14.6262381869       17.8305323757
  H        -3.8206426046       13.8009187449       14.4544908584
  H        -2.1421531464       14.0596944539       15.0974793137
  H        -2.7956072084       12.3850022103       15.1625652569
  C        -1.9148612813       13.4212052526       20.0896879494
  H        -3.5063566979       12.4700905097       19.2267289986
  H        -3.7623626128       14.2352583847       19.2816126882
  C        -2.3672926418       13.3391035594       21.5493146068
  H        -1.3233501087       12.5214073893       19.8482904003
  H        -1.2233593271       14.2659714248       19.8663804272
  C        -1.3787823965       12.6068868240       22.4517777830
  H        -3.3761559005       12.9133559918       21.6753412470
  H        -2.4143124173       14.3397417064       21.7932431711
  C        -0.1900240622       13.4556945319       22.9104158655
  H        -1.9601494212       12.3537743604       23.3519143667
  H        -0.9389355687       11.7101803791       22.0372361235
  C         1.0657669943       12.7048153521       23.4223242606
  H         0.1994269140       14.0253657024       22.1022868110
  H        -0.5496546383       14.2422637439       23.5848805791
  C         1.5041007099       11.3700598711       22.7238596998
  C         0.7479651274       12.0036455479       24.6520371192
  C         2.3338946346       13.6003408734       23.6103764032
  C         1.3626041632       10.2821969062       23.5271124751
  C         1.9340561297       11.0441756963       21.4686127542
  C         0.8774498595       10.6335601106       24.7752650750
  C         0.3498425106       12.6690943058       25.8759373238
  H         2.4219722637       14.1748950995       22.7405321402
  H         2.1004650541       14.3056115749       24.4363055460
  C         3.7066371020       13.0006193873       23.9801074807
  S         1.7348969598        8.7797813181       22.7435669614
  C         2.0942905375        9.6896976304       21.2863877824
  H         2.0338605530       11.8944843665       20.7597585546
  C         0.4560040023        9.9964906369       25.8903979547
  H         0.1729400570       13.7013212543       26.0493798534
  C         0.0313400509       12.0026343338       27.0150016142
  H         3.9035349976       12.3045241470       23.2261520016
  H         3.5710365696       12.4910681656       24.9445994914
  C         4.6843365421       14.1525552182       24.1026213609
  C         2.5222734137        9.0053212207       19.9899812664
  C         0.0738108912       10.6382745095       27.0570125135
  H         0.5093579129        8.9498207434       25.9596161682
  C        -0.4185494276       12.3149868319       28.2486448973
  H         5.4200709023       14.0851538152       24.9475544147
  H         4.1099995759       15.0430932750       24.3169821261
  C         5.4892376067       14.3720194916       22.7778275232
  C         2.5709002050        7.6180133662       19.7279838041
  C         2.8049041769        9.8644975540       18.7695749869
  C        -0.2793220584        9.8364419720       28.3523535142
  C        -0.6958030020       11.2024096860       29.0274557353
  S        -0.7562346096       13.7995835817       29.0936037268
  H         6.0307582924       15.2985237186       22.9713085583
  H         4.7545281871       14.4599974719       22.0035453160
  C         6.3131863363       13.2357287864       22.3392058385
  N         2.2847179004        6.5968111958       20.6536866382
  C         2.9736649150        7.1141743022       18.4960229685
  C         3.1435824246        9.3360133080       17.5263424321
  H         2.8668753495       10.8751440294       18.9382695282
  C         0.9066050069        9.1969207701       29.1354668033
  C        -1.5044113143        8.9138073164       28.2555689911
  C        -1.1693619345       11.5705441775       30.3089951448
  C        -1.2924937183       12.9213836179       30.4868639989
  H         6.8995587439       13.0615181053       23.2391609981
  H         5.7518085062       12.3246444370       22.2516978745
  C         7.2419473968       13.4304488003       21.1538319808
  S         2.6770299481        5.1659972950       19.9543758239
  N         3.0248176742        5.7247761599       18.4721359018
  C         3.2492589858        7.8591117500       17.2965612287
  H         3.3521781740       10.0030641966       16.7051778052
  H         1.4641951838        8.6789226433       28.3496775168
  H         0.5759721845        8.5496324507       29.9764810980
  C         1.9159010024       10.1330004078       29.8328003957
  H        -1.3421953114        8.2159367488       27.4693668107
  H        -1.7610538940        8.3687719734       29.1786608886
  C        -2.7110213612        9.7076395537       27.7892188552
  H        -1.3947023258       10.8274970438       31.0828473278
  C        -1.6821597774       13.5334917013       31.8119642844
  H         7.8201069437       12.5470758656       21.0015746095
  H         7.9435697818       14.2846018080       21.4458489985
  C         6.5246927411       13.7344365431       19.8611938310
  C         3.3106321762        7.1843282602       16.0209069895
  H         1.9125416999       11.0248529249       29.2083048152
  H         1.5463411013       10.3695065080       30.8335838024
  C         3.3275930118        9.4879024879       29.8789354420
  H        -2.5631093233       10.4022413614       26.9653012746
  H        -2.9176560646       10.3820025643       28.6191122294
  C        -3.9914832459        8.8611767654       27.6420973886
  C        -1.8600074714       14.9569275152       31.9870891034
  C        -1.9201465870       12.7775187760       33.0906612420
  H         5.6954613727       13.0576160325       19.8165266334
  H         6.2762899163       14.7897682562       19.9307719374
  C         7.4596061922       13.5871547331       18.6489989888
  H         3.0885975645        6.1426768689       16.0904486975
  C         3.7169612840        7.6002974237       14.7779138338
  H         3.8764939914        9.6223800587       28.9658472605
  H         3.2971311245        8.3838660701       30.0179620950
  C         4.3349613270       10.0770456775       30.8207754855
  H        -3.8442788009        7.9839817894       26.9932039268
  H        -4.2399362723        8.3375348946       28.5660472320
  C        -5.1876898095        9.6554109575       27.2569232153
  N        -1.5257165588       15.9241987194       30.9796649162
  C        -2.2267686991       15.6004794821       33.1413570233
  C        -2.3011749941       13.3984319414       34.2856753980
  H        -1.8171216802       11.7122753869       33.0704816961
  H         8.0552924850       12.6950607266       18.6429774262
  H         6.8134471952       13.6778998274       17.7646628012
  H         8.2061968019       14.3548965616       18.7688374693
  S         4.1605596909        9.2401754253       14.4753655866
  C         3.7374586997        6.6802143101       13.5899976274
  H         4.9593846512       10.7214360183       30.2695929978
  H         3.8560243061       10.7959462597       31.5144639351
  C         5.1086656168        8.9569661814       31.6424521836
  H        -4.9245171206       10.6547119432       27.0190555275
  H        -5.7106071507        9.8650528315       28.2026763430
  C        -6.1891127474        8.9029994882       26.3083690071
  S        -1.6879384946       17.4318750896       31.6204932818
  N        -2.1450078303       16.9591786825       33.0870336990
  C        -2.5056158795       14.8621165503       34.3905425202
  H        -2.4990268574       12.8798193155       35.2267821630
  C         4.3396182132        8.6949934758       12.8128070583
  N         4.1077332909        7.4544842035       12.4846815069
  O         3.4717176144        5.4361242495       13.6081881967
  H         4.3852884923        8.3572523612       32.1593465350
  H         5.6525190945        9.5085698608       32.4768512812
  C         6.1193915954        8.1380175011       30.9203042947
  H        -5.6899356012        8.6011241243       25.3859965214
  H        -6.5663852305        7.9762059205       26.6918160571
  C        -7.3806088923        9.8389240212       25.9449012116
  C        -2.9239871201       15.5823261707       35.5595597610
  S         4.6463166770        9.7721597384       11.4635798510
  C         4.1727885785        6.8098764152       11.1735609040
  H         6.0762007016        8.0417307254       29.8536605584
  H         7.0568737708        8.7397117030       31.0333632772
  C         6.5452142498        6.8665860397       31.5478314762
  H        -7.3626272452       10.1444503434       24.9105816351
  H        -7.4792672074       10.7697429949       26.4905441362
  C        -8.7894674320        9.2505750897       26.1623727676
  H        -2.6903336126       16.5868944426       35.3487728013
  C        -3.4003950422       15.2712439072       36.8263687738
  H         4.9109947484        7.2649204102       10.5932667622
  H         4.4401779004        5.7445064221       11.2188154718
  C         2.8214249827        6.9697485993       10.4958305489
  H         6.6182248291        7.0575890232       32.6063736334
  H         7.5099726804        6.6623512094       31.1628892152
  C         5.5396174971        5.7942170292       31.2722340709
  H        -9.2010947362        8.9064190897       25.2496865656
  H        -8.7455939032        8.4018742392       26.7724494058
  C        -9.6619332002       10.3354244158       26.7122797997
  S        -4.0067490949       13.6982320941       37.4146240886
  C        -3.5341824578       16.4259315621       37.7265921858
  H         2.8256857657        7.4172179667        9.5475693429
  H         2.6148950840        5.9264465361       10.3122355871
  H         2.0871021474        7.4021988805       11.1291909758
  H         5.9413573180        5.1583700050       30.4577372037
  H         4.5413211978        6.1427429565       30.9944211615
  H         5.4000934010        5.1561054035       32.0816901829
  H       -10.7085619559       10.0941835658       26.5007879893
  H        -9.4049686501       11.3909602088       26.4575593985
  H        -9.5664352486       10.4752309901       27.8264060175
  C        -4.3156398004       14.6258179816       38.9059282839
  N        -4.1204398477       15.9596143560       38.8401689866
  O        -3.1510287048       17.5625684496       37.4666873836
  S        -5.2381883498       14.0500406702       40.2228529687
  C        -4.3781601651       16.9519104841       39.8322389386
  H        -4.5052256672       17.8853861980       39.3061412209
  H        -5.3336543569       16.7771928261       40.1850073862
  C        -3.2669984349       17.0180527782       40.8898490419
  H        -2.8202643030       16.0125157812       40.9243142466
  H        -2.4818180186       17.7329627940       40.6122749915
  H        -3.6210573594       17.1209527661       41.9507761730
