352
 i =    54400, time =    54400.000, E =        24.9046572610
  H        10.6527335587        4.9210542342       31.8909229074
  C        10.4097454947        5.9454494104       31.8209615258
  H         9.4834271530        5.9108582388       31.2544144704
  C        11.3093794829        6.8529342607       30.9701178170
  C        10.1971713280        6.4665690111       33.2027261688
  C        11.8357907709        6.0372956820       29.8636839245
  H        10.6288424968        7.6570526457       30.5295683083
  H        12.2249486580        7.1889476623       31.5032635288
  H        10.5485858111        5.8231262305       34.0163385982
  H        10.7170205238        7.4138660350       33.3907835768
  H         9.1828805205        6.8261295396       33.3293938411
  C        10.7313709544        5.6256390012       28.8510745527
  H        12.3061471880        5.0765103272       30.2233373362
  H        12.6446977122        6.5947513821       29.3739829054
  C        11.2510425811        5.7795188947       27.4172849502
  H        10.3379427791        4.6517299830       29.1055384988
  H         9.8598890949        6.1995178213       29.0593461403
  C        10.1856633576        5.1963213042       26.4818720414
  H        12.1145112578        5.1076200076       27.3627373956
  H        11.3798880443        6.8136549063       27.0679519680
  C         8.8771639012        5.9901088788       26.3448063708
  H        10.5928953055        5.0329172568       25.4873876801
  H         9.9457776106        4.1871303349       26.7012567542
  C         7.7209742750        5.3147545973       25.5965896133
  H         8.4231321045        6.0722909126       27.3228449996
  H         9.1100474256        6.9947739151       25.9294364604
  C         7.2077847753        4.0135748498       26.3036127448
  C         8.0415243147        4.6155863578       24.3250745258
  C         6.5118584491        6.1931490493       25.4308325659
  C         7.3916275712        2.9030866435       25.4607890665
  C         6.6658153019        3.6108054989       27.5590508692
  C         7.8936267168        3.2952377925       24.2528542012
  C         8.4330980961        5.2466020078       23.1380076941
  H         6.7768935569        7.0979713718       24.8549556170
  H         6.2484962152        6.5879253757       26.3461212974
  C         5.2330961463        5.5869280337       24.8094683946
  S         7.0937264907        1.3716635691       26.2302533064
  C         6.5864420253        2.2415655530       27.6538684887
  H         6.5149517020        4.4024370223       28.2251299100
  C         8.2303188734        2.5813235293       23.0950189238
  H         8.3814282617        6.3342854860       23.0464646722
  C         8.8910968337        4.5997308628       22.0290397846
  H         5.5138980717        5.4064240569       23.8049433691
  H         4.9127545774        4.6304198504       25.2524113948
  C         4.0031801724        6.4383855295       24.6866375562
  C         6.0263223348        1.5332416463       28.8125506792
  C         8.8312410143        3.1948433628       21.9851190553
  H         8.1149972965        1.5138078272       22.9252124931
  C         9.2824701248        4.8823989243       20.7654603254
  H         3.3664042698        6.1076435671       23.8237933518
  H         4.3068720328        7.4656107915       24.3651859627
  C         3.2156806100        6.7101400333       25.9476597499
  C         5.8911281997        0.1153443207       28.9978929394
  C         5.5737911730        2.3369954538       30.0168213424
  C         9.2827803733        2.4428369035       20.8144649064
  C         9.5064025625        3.7391255909       20.0385055263
  S         9.6277576481        6.3402860218       19.9323406900
  H         2.5888751814        7.5980755210       25.8554404525
  H         3.9050389621        6.8964248310       26.7572143968
  C         2.2948989917        5.5651947162       26.4032125726
  N         6.2908484615       -0.9229330464       28.1067090193
  C         5.5836052559       -0.4694584968       30.2382387302
  C         5.2478795923        1.7920174867       31.2360445906
  H         5.5931509053        3.4072910102       29.9095501264
  C         8.1162108315        1.6295763167       20.0795807222
  C        10.5775518150        1.7175938305       21.0239363075
  C         9.8290552309        4.0978415221       18.7792665013
  C         9.8121828176        5.4389649465       18.5078809170
  H         1.4040728529        5.7317289012       25.7699239576
  H         2.6588338999        4.5799961399       26.1306161592
  C         1.6817327748        5.7158752809       27.8483092375
  S         6.0621783438       -2.3851638483       28.7932893523
  N         5.8131355701       -1.8339536454       30.3093194411
  C         5.3444112965        0.2839146719       31.4487715371
  H         4.9827478844        2.5026609263       31.9622512391
  H         7.7465414389        0.7604992122       20.6581340621
  H         8.5263816727        1.0622684146       19.2684025081
  C         7.0143981048        2.5635128889       19.4993856966
  H        10.8522642488        1.2111881766       20.1570172071
  H        10.3612757718        0.9388637264       21.7778813063
  C        11.8017668412        2.4486275505       21.5706850832
  H        10.0058211970        3.3012358625       18.0348286942
  C        10.1368394564        6.2059711912       17.2273174545
  H         1.1997579490        4.6719442769       27.9260253112
  H         0.8824315747        6.4114876239       27.9256778545
  C         2.5914544417        5.8290504418       28.9053528282
  C         5.0635348700       -0.4070751739       32.6326925232
  H         7.5025286155        3.0368082220       18.6604671472
  H         6.7515308043        3.3422186985       20.2228622153
  C         5.7150486290        1.9088954480       19.0228316852
  H        11.5109069305        2.9562071723       22.5131846380
  H        12.0734981271        3.1671435882       20.8713058915
  C        12.8898810251        1.4135925679       21.7456062553
  C        10.3637544759        7.5871801983       17.1625103033
  C        10.1854962827        5.4467572599       16.0115667053
  H         3.3522780641        5.1039128511       28.7799855223
  H         3.1132633153        6.7439178116       28.7752466776
  C         1.9476134343        5.7427226473       30.3152204884
  H         5.3146096813       -1.4047269080       32.6142905263
  C         4.7935729430        0.0043088117       33.9163106077
  H         5.1621199560        1.5333376309       19.8611218504
  H         5.8191262401        1.0314871794       18.4690362686
  C         4.9159991130        2.8187656490       18.2474051875
  H        12.7846978436        0.8878597371       22.7198482925
  H        12.7423371512        0.5480366491       21.1283358501
  C        14.3243372558        1.9336631631       21.6447665045
  N        10.0433674284        8.5099200697       18.1997317169
  C        10.6413469348        8.2383517196       15.9659745104
  C        10.5385436179        6.0178955095       14.7763834079
  H         9.9744599170        4.3789206067       16.0766305580
  H         1.7984356923        6.7186099837       30.8339801289
  H         0.9735665644        5.2672077048       30.1521702113
  H         2.5321723665        5.0850005191       31.0552014006
  S         4.5300245779        1.6079031748       34.4503603273
  C         4.7579103141       -1.0433357812       35.0308795324
  H         5.0150825641        3.7801884225       18.6488572856
  H         5.2916460013        2.9674841816       17.2949722441
  C         3.4392434742        2.4816366059       18.5400975099
  H        14.3034410248        2.6352186502       20.7762151862
  H        14.9639427984        1.0385917426       21.4371216563
  C        14.6851764145        2.7677267717       22.8588881720
  S        10.2765699976       10.0000486989       17.6426633181
  N        10.6009489255        9.6129235593       16.1076308686
  C        10.7064581188        7.5369790582       14.7172157928
  H        10.7219511978        5.3537833159       13.9903003093
  C         4.2282280434        0.9123521941       36.0019392419
  N         4.3231747669       -0.4295785572       36.1373541015
  O         4.8879263935       -2.2690873377       34.9163637044
  H         2.7521418639        3.3201196813       18.3093478954
  H         3.2969084349        2.3214671150       19.5633076339
  C         3.0307736067        1.1406647724       17.8364222989
  H        14.6894883377        3.8027731479       22.4990470725
  H        13.9289185677        2.6916723296       23.6394447379
  C        16.0170317275        2.2992973285       23.3919743931
  C        11.1051943958        8.3467861254       13.6344846248
  S         3.9410929577        1.7938744308       37.4742623926
  C         4.2442684714       -1.1633544410       37.4234282913
  H         2.1808373746        1.2905572668       17.2094359256
  H         3.9397446853        0.6899869765       17.3448755154
  C         2.6767793250        0.1593801023       18.9011843115
  H        15.8658539532        1.3523618446       24.0370343335
  H        16.3362212333        2.9510438833       24.2132266979
  C        17.2085993375        2.2885680078       22.4110844667
  H        10.7411061200        9.4053412451       13.6341505079
  C        11.7611277812        8.0655431102       12.4634097929
  H         3.4807380882       -0.6955164749       38.1004549996
  H         4.0044068560       -2.2073921235       37.1875214197
  C         5.6518896320       -1.0399438530       38.0822665948
  H         1.9749075495        0.6088514312       19.6652145433
  H         3.5997233544       -0.0672191218       19.3840378096
  C         2.1927466852       -1.1236253832       18.3384546753
  H        17.1860823251        1.2788999765       21.9026766516
  H        17.1213839031        3.1061849073       21.6782268299
  C        18.5737507273        2.5408685783       22.9587322150
  S        12.2823082945        6.5573622352       11.9594013976
  C        11.9519358741        9.1365060777       11.4497206162
  H         5.9155804588       -1.8730471133       38.7947732963
  H         6.4583622811       -1.0341839308       37.3084551265
  H         5.8244275906       -0.0833882852       38.4863283518
  H         3.0246203183       -1.8032012795       18.2423114124
  H         1.8891740720       -0.8541567848       17.2937876316
  H         1.3031176839       -1.5551268267       18.8202250852
  H        18.4203470191        2.9599088509       23.9719825666
  H        19.0476849942        3.2887533276       22.3515860193
  H        19.1172054063        1.6204352776       22.9602642146
  C        12.8800962870        7.3484413557       10.4380796778
  N        12.5644287246        8.6907765001       10.3468854509
  O        11.6365159596       10.3191690798       11.6332801585
  S        13.1846457177        6.4715599689        8.9484106428
  C        12.7487380014        9.5524765592        9.1376811998
  H        13.1517725010       10.5318697696        9.4600085939
  H        13.5001243976        9.1582450153        8.4148017149
  C        11.3496987718        9.6400977324        8.5014633031
  H        10.5583211371       10.1652704060        9.1127931278
  H        11.4631852976       10.2296428375        7.5925031832
  H        11.0546945220        8.6558744846        8.1910666844
  H        -0.9630810279       13.2412934373       17.3337869524
  C        -1.4791501603       14.0950246111       17.1058815668
  H        -0.8628179114       14.8193752993       16.6078218037
  C        -2.2436801675       14.8353616481       18.1965765881
  C        -2.3407806638       13.6176312603       15.9335895153
  C        -3.1321988320       13.9866940817       19.0894203620
  H        -1.5502498845       15.3510283130       18.8675022397
  H        -2.8190016499       15.6033509919       17.6845881500
  H        -3.2191737650       13.0903935168       16.2138057727
  H        -2.5779681292       14.5297350277       15.3243074470
  H        -1.7167353177       13.0719777984       15.1690558674
  C        -2.4916198285       13.1210867184       20.0986190817
  H        -3.6649096029       13.2827742713       18.4527931135
  H        -3.8573594455       14.6395641660       19.5500682652
  C        -2.2237435422       13.8794699044       21.3637134582
  H        -3.0391131565       12.2639340910       20.3877233728
  H        -1.5012813089       12.7333318295       19.7548370916
  C        -1.1730275679       13.0951301002       22.1667970378
  H        -3.1622581904       13.7487945163       21.9304191321
  H        -2.1068929358       14.8945001992       21.2421074720
  C         0.0022149337       13.9915136083       22.5094661899
  H        -1.6745301969       12.8466304147       23.1256652187
  H        -0.9442112530       12.1470178274       21.6842532735
  C         1.1054354354       13.2098894665       23.2907098148
  H         0.5241809846       14.3230262381       21.6263119846
  H        -0.3599135021       14.8852298266       23.0424592490
  C         1.4661743109       11.7958069234       22.6194370127
  C         0.7293280147       12.4040112376       24.5082185702
  C         2.3188435440       14.1433779230       23.5454402858
  C         1.3029065617       10.6839077201       23.3623910625
  C         1.8908921143       11.4039178995       21.3094137740
  C         0.7913989143       11.0758985364       24.5518951856
  C         0.4729841661       13.0432206617       25.6947374973
  H         2.6333396094       14.5920422767       22.5649173919
  H         2.1165333895       15.0595520227       24.1176944210
  C         3.5818502003       13.4436440956       24.1030027489
  S         1.6589161331        9.1709090021       22.5701184410
  C         2.1002726109       10.0717786139       21.1736586124
  H         2.0146370425       12.2264272014       20.6049238862
  C         0.4976391295       10.4089220083       25.7086748070
  H         0.4706431046       14.1586268156       25.6267094340
  C         0.0638173669       12.3695946038       26.7865191115
  H         3.8026585790       12.5034398184       23.5272748781
  H         3.3427922428       13.1785920261       25.1440350672
  C         4.8462876998       14.2269757514       24.2445285490
  C         2.5368714666        9.4672591744       19.8970046977
  C         0.0633351156       11.0457168544       26.8495652034
  H         0.6122042152        9.3449925194       25.7961840102
  C        -0.3954165150       12.7494665078       28.0329305627
  H         5.4986633135       13.5819833285       24.7907839752
  H         4.5823430542       15.0493093511       24.9243352158
  C         5.5854504180       14.5435075705       22.9199046330
  C         2.4915210552        8.1052194392       19.5308575924
  C         3.1381054043       10.3596378859       18.8362769650
  C        -0.3286710466       10.2746404349       28.0253692788
  C        -0.5640751331       11.6402673338       28.7751748993
  S        -0.7338798055       14.2236576893       28.7826302136
  H         6.6339907414       14.7471343842       23.1091933282
  H         5.1337060470       15.3596391429       22.4101386454
  C         5.8145934916       13.3904524450       21.9588374227
  N         2.0254917109        7.0853930993       20.3294347119
  C         2.9564141376        7.5853852455       18.3645855881
  C         3.4666636311        9.8528068674       17.5409613607
  H         3.2558184445       11.4314950117       18.9671380265
  C         0.7478334730        9.4082410663       28.7061692184
  C        -1.5727649252        9.4099181217       27.7318583948
  C        -0.8025828762       12.0127277170       30.1228555406
  C        -0.9211620983       13.3611156142       30.2608283787
  H         6.1008024676       12.5485212114       22.6029259888
  H         4.9106199933       13.0675433753       21.4697983090
  C         6.9117197003       13.6168545445       20.9442978277
  S         2.3542644217        5.6709863308       19.7314390564
  N         2.7277029211        6.2134166299       18.2515657641
  C         3.3488980277        8.4267164267       17.2813761985
  H         3.8145266068       10.5173886392       16.8170576889
  H         0.8440197496        8.4989792328       28.0888979208
  H         0.3650516187        8.9909137859       29.6704673487
  C         2.1301777732       10.0435665336       29.0316143769
  H        -1.6023016644        8.8441938726       26.8007034145
  H        -1.7590989058        8.6747368731       28.4794409032
  C        -2.9019400882       10.1846933479       27.5911047638
  H        -0.8080189718       11.1896938995       30.8726482226
  C        -1.2659747927       14.0074802106       31.5807371368
  H         7.8600726335       13.0059093424       21.0532689865
  H         7.2538102910       14.5854640776       21.0576374001
  C         6.3567406038       13.7664737217       19.5303494214
  C         3.6399621871        7.8123816877       16.0471308471
  H         2.9059309704        9.5262056036       28.4900273271
  H         2.1490979972       11.0528457476       28.6879434074
  C         2.4543513082       10.1352786253       30.5369030635
  H        -2.8110567864       10.8442522395       26.7212172774
  H        -3.0564494285       10.9195805868       28.4100657131
  C        -4.1133649856        9.3431028751       27.4184410667
  C        -1.3233697594       15.4228513341       31.7695231541
  C        -1.6944881388       13.1379762324       32.6829227134
  H         5.5500541656       12.9787968078       19.4765788172
  H         5.9875324614       14.7825882177       19.5765778945
  C         7.3369255641       13.6985163809       18.4107091646
  H         3.7075593001        6.7687658173       16.0944327410
  C         3.9983970814        8.3435206156       14.8482529698
  H         2.4105964383        9.0944669674       30.8847679585
  H         1.6150806797       10.6397593194       31.0541499941
  C         3.7897897356       10.8171556159       30.7236770503
  H        -4.0446179928        8.6009605499       26.6121302166
  H        -4.2777416443        8.7765637006       28.2999254826
  C        -5.4199848422       10.1295125367       27.0779201078
  N        -1.3714386174       16.4977129990       30.8054038688
  C        -1.6595265895       15.9521771249       33.0302699900
  C        -2.0750889166       13.6490294640       33.9065630448
  H        -1.8651286048       12.0501066197       32.4702261489
  H         8.1699769542       14.3571391555       18.7023003950
  H         7.7912202819       12.6854664099       18.1664331726
  H         6.7713727676       14.0518023115       17.5880397525
  S         4.1506546901       10.0317238292       14.3633772643
  C         4.2449656712        7.3686036760       13.7714260510
  H         3.7546720802       11.6959504020       30.0807604216
  H         3.8160758864       11.2562973366       31.6896438641
  C         5.0253761330        9.9578715652       30.5195781986
  H        -5.2447409935       11.1904534969       26.8011290049
  H        -6.0443863584       10.0632965583       28.0263216880
  C        -6.2066953228        9.5350253663       25.9261422279
  S        -1.4561100803       17.9366152373       31.5715579985
  N        -1.7883314605       17.3662309528       33.0509611225
  C        -1.9921328678       15.1414634052       34.1773426071
  H        -2.2813119482       12.9480546326       34.7012685254
  C         4.5172186791        9.3248961205       12.7403585160
  N         4.5826907537        7.9897965375       12.6251382819
  O         4.2478241454        6.1515285568       13.9549076240
  H         5.9299715043       10.6348757869       30.7004633797
  H         5.0745958129        9.6458787880       29.4833640454
  C         5.2253110944        8.6499741030       31.3835900285
  H        -5.5026617992        9.2134804578       25.1337839425
  H        -6.6713615252        8.5433050837       26.1968164400
  C        -7.1992094241       10.5703621920       25.4203695578
  C        -2.4022496884       15.7919200341       35.3662650333
  S         4.8768303036       10.2673356275       11.3521980983
  C         4.6460704470        7.2317745835       11.3182343322
  H         5.5573518840        8.8899780137       32.4421967329
  H         4.3288806914        8.1022439377       31.4290815822
  C         6.3049974462        7.7505652363       30.7440107339
  H        -6.9969207471       10.9360155621       24.3595846453
  H        -7.3319755430       11.4622409710       26.0736253070
  C        -8.5350947870        9.9607191273       25.3452810549
  H        -2.0633035291       16.7653409233       35.4842086005
  C        -3.1152898723       15.4310117351       36.4528620474
  H         5.3597167673        7.6235324107       10.5603186882
  H         5.1001542581        6.2688010011       11.5968845207
  C         3.2329110779        7.0686472517       10.6405897360
  H         7.2209658987        8.3287071827       30.8501541383
  H         6.2152969754        7.7356700408       29.6931078838
  C         6.3558691355        6.3800449429       31.4958310040
  H        -9.2317230197       10.6427009270       24.8515637424
  H        -8.4290998850        9.0497055952       24.8294504638
  C        -9.2806953445        9.5660531078       26.6184869688
  S        -3.7881980196       13.8524359725       36.8200097513
  C        -3.3996847174       16.5524782508       37.4276336565
  H         2.7481818930        8.0682024587       10.7074763978
  H         3.4727210479        6.8285206291        9.6182557165
  H         2.6610163340        6.2273329349       11.0000328378
  H         6.4415498042        6.5443812319       32.5836369858
  H         7.2574386418        5.8776625895       31.1872253852
  H         5.5224125631        5.7348319184       31.2079001141
  H        -8.7678733522        8.8104178527       27.1926430699
  H       -10.3174414768        9.3305827397       26.4152925285
  H        -9.2785239554       10.4709148336       27.2371689797
  C        -4.1337282127       14.6261761907       38.4081120669
  N        -3.9423575990       15.9557595219       38.5437991314
  O        -3.0581889565       17.7413602414       37.3008012390
  S        -4.8343758676       13.7678773564       39.8000998700
  C        -4.0007268439       16.8011353153       39.7865954557
  H        -4.1473581688       17.8864819458       39.6425742087
  H        -4.8643202735       16.5318245739       40.3905855894
  C        -2.6908468280       16.6520499310       40.6847919562
  H        -2.6703714862       15.5799684940       40.9590841540
  H        -1.8225746942       16.8389708264       40.0473741929
  H        -2.6989213008       17.3973812911       41.5223585967
