352
 i =    69400, time =    69400.000, E =        25.3341473395
  H        12.8312464966        5.3033454434       32.5318040487
  C        11.8083928476        5.0943572379       32.2228841317
  H        11.8127139632        4.0233498088       31.9630708032
  C        11.5660202821        5.9512627253       30.9500404194
  C        10.9261230715        5.3798222027       33.4163940749
  C        12.4120849372        5.4561182064       29.7310643784
  H        10.5323890808        6.0641694797       30.7785469494
  H        11.8151408187        7.0340412797       31.1610557572
  H        11.0645775614        4.6086681947       34.1693343980
  H        11.0583269706        6.3663483507       33.8614405849
  H         9.8445099569        5.3848790626       33.1130240931
  C        11.6971985433        4.8508301362       28.5918418954
  H        13.1629197861        4.7616778563       30.0068970215
  H        12.9355071991        6.4064737778       29.3860531525
  C        10.5346558517        5.6109858526       27.9339293000
  H        12.4040169965        4.5084824261       27.7361139324
  H        11.2781804095        3.9718801782       29.1029131737
  C         9.6606347133        4.6539964052       27.0858325627
  H        10.9743573540        6.4738102911       27.4179166807
  H         9.8587668836        6.0396919668       28.6764026231
  C         8.3510702946        5.3817630133       26.5096686937
  H        10.2121351459        4.3001493063       26.1728679627
  H         9.2570955054        3.8060869287       27.6460098032
  C         7.5627212774        4.4950001776       25.5842916422
  H         7.8081320385        5.7874029822       27.4262305358
  H         8.6596214068        6.2292127112       25.9172227507
  C         7.2722920101        3.1734332765       26.3246874656
  C         8.2321776093        3.7356004596       24.4454524333
  C         6.3575969681        5.2752771894       25.0411846328
  C         7.5896753392        2.0395553989       25.5598991062
  C         6.7329604081        2.7998013991       27.5675856211
  C         8.2127106270        2.3880419484       24.3832629237
  C         8.7226412035        4.3965666605       23.3138937357
  H         5.9712013357        4.7957782559       24.1864580058
  H         6.7076883213        6.3326174843       24.7925982828
  C         5.1680301311        5.5150670400       26.0333863743
  S         7.0884299825        0.6038477112       26.2998608693
  C         6.6871770081        1.4408551252       27.7603856510
  H         6.4544606781        3.5569355900       28.2779838697
  C         8.6006545760        1.7944012007       23.2155112515
  H         8.5350329942        5.4544201524       23.3164062882
  C         9.1780253014        3.8350935014       22.1889686950
  H         5.0070936993        4.6504720110       26.6661335072
  H         5.4406039938        6.2988207244       26.6730039077
  C         3.9042908737        5.9209426744       25.1926976104
  C         6.3159839262        0.7947258052       29.0290386217
  C         9.0768706551        2.4955593083       22.0689234037
  H         8.5248254367        0.7365875502       23.1437277047
  C         9.5093982921        4.2468186307       20.9146493743
  H         3.6957078420        5.0369657741       24.5407716001
  H         4.0575050474        6.9053076918       24.7447396263
  C         2.8259555285        6.1346948299       26.2048367941
  C         6.3894579993       -0.5631766661       29.2938645530
  C         5.8816537079        1.6303391587       30.2057898960
  C         9.4558397111        1.8274971792       20.7173397506
  C         9.7171076404        3.1932751237       20.0285716551
  S         9.7148950218        5.7633926896       20.1872009088
  H         1.9617332862        6.4093539879       25.6073081835
  H         3.0093248378        6.8846591285       26.9466685992
  C         2.3539952131        4.7413356960       26.7924717245
  N         6.8025354876       -1.5339509737       28.3695191638
  C         5.9349823388       -1.1198473904       30.4808349776
  C         5.5110701216        1.0433493039       31.3732912544
  H         5.7551513739        2.6894572849       30.0561908312
  C         8.1686583427        1.2464139782       20.0990801018
  C        10.6959095981        0.8986134367       20.7254845592
  C        10.0540258103        3.6419869692       18.7507885698
  C         9.9542425225        4.9951631398       18.6737320858
  H         1.5288751234        4.3819270793       26.2768325357
  H         3.1375740582        4.0239104971       26.6096441455
  C         1.8516517302        4.7993120519       28.2512603425
  S         6.6136607934       -2.9855809935       29.0692924842
  N         6.1718424424       -2.5574228725       30.5662209740
  C         5.5353858512       -0.3814474293       31.6254894053
  H         5.2191867902        1.7688096766       32.0733753927
  H         8.0059623993        0.1888538047       20.5059712240
  H         8.4511867011        0.9377927374       19.0420301104
  C         6.9443280189        2.0827974826       19.9636378231
  H        10.7626157421        0.6915063994       19.6417008580
  H        10.5682543938       -0.0461980603       21.2444237234
  C        12.0245901554        1.7129550755       20.8708979275
  H        10.1577445155        2.9242018282       17.9931659215
  C        10.2141115616        5.8452924683       17.4941672835
  H         1.3334612083        3.7827680697       28.3558514676
  H         1.0387551431        5.5634828561       28.3547746131
  C         2.9641127652        5.1230743013       29.1610707583
  C         5.2474312274       -0.9332068619       32.9564933301
  H         7.0297942438        2.7193751108       19.1445380840
  H         6.8200998607        2.8279634496       20.7291881049
  C         5.6638726877        1.3321721204       19.9232761777
  H        11.8701223749        2.4564123800       21.6583786205
  H        12.1741521558        2.3366054808       19.9563477915
  C        13.3298826252        0.8947948756       21.1122607765
  C        10.2251069170        7.1979319998       17.3810696549
  C        10.5438100279        5.0881897231       16.2529020078
  H         3.8799243366        4.5549229432       29.0193080229
  H         3.3231330355        6.1818993839       29.1118156115
  C         2.4955001671        4.9339988039       30.5517479041
  H         5.3982732936       -1.9548065170       32.9000322684
  C         4.9599330340       -0.4714998857       34.1815633885
  H         4.8896797731        2.1010034188       19.9409816082
  H         5.4964160876        0.6612809165       20.7387930859
  C         5.5331624617        0.5662497062       18.5851384779
  H        13.1571850445        0.1405235978       21.8017257444
  H        13.5977136716        0.5185165151       20.1173296492
  C        14.4872086070        1.7655247943       21.5399823196
  N         9.9493526015        8.1009895333       18.4442983843
  C        10.5109105202        7.8627813673       16.2118191253
  C        10.7490320313        5.6809399541       15.0351460068
  H        10.6569799264        4.0218954420       16.0899362819
  H         2.3974303216        5.9250287727       30.8437732754
  H         1.4426081129        4.4948628121       30.4976437742
  H         3.1629797346        4.2236184965       31.1695836836
  S         4.8507605899        1.1727493038       34.5782160426
  C         4.8644212333       -1.4418797648       35.2258723639
  H         5.8415068534        1.1869056308       17.7458842599
  H         6.2019295630       -0.2996510880       18.6816300574
  C         4.0749956631        0.1292029190       18.3788494653
  H        13.9858041773        2.6651558919       21.8651588668
  H        15.2251367321        2.0819911534       20.8029686778
  C        15.3401337895        1.1998065559       22.6687754282
  S        10.1483252926        9.6248053194       17.9084092143
  N        10.4741814445        9.2613800100       16.3830307740
  C        10.7462232733        7.1944338649       14.9827076713
  H        10.8960096904        5.1016995226       14.1374069552
  C         4.4748327580        0.4886539073       36.2116357832
  N         4.5558825021       -0.8581311753       36.3667128771
  O         4.9515801801       -2.6709443608       35.0256638537
  H         3.7288490996        0.2405581043       17.3424996831
  H         3.3737073974        0.7869067488       18.8617912398
  C         3.8084294354       -1.2766241110       18.7939830459
  H        14.6900285659        0.8792498676       23.4346704654
  H        15.8741942917        0.2893115235       22.3651677766
  C        16.1684672541        2.2229342206       23.3993932169
  C        11.0158555554        7.9845625086       13.7949826354
  S         4.0204923318        1.4609962592       37.6345035045
  C         4.3498962626       -1.6887165069       37.5950846820
  H         4.5721014092       -1.4666787156       19.5783084216
  H         2.8004097430       -1.3576650549       19.2585039478
  C         4.0026825351       -2.2293760625       17.6561999875
  H        15.6518298691        2.5717531147       24.2756678617
  H        16.3921297046        3.0085939778       22.6967515819
  C        17.5296144216        1.6194167493       23.8163203425
  H        10.6140227525        8.9736745695       13.8054154406
  C        11.5811166486        7.6476883390       12.5773078084
  H         3.6024568494       -1.1516896535       38.1609859816
  H         4.0654053721       -2.6824129007       37.2056401133
  C         5.7305569814       -1.8775669834       38.3046031391
  H         4.2799915822       -3.3050606257       17.9149261041
  H         4.9431443043       -1.9400611029       17.1080160576
  C         2.8149912833       -2.3010796897       16.7118801575
  H        17.9444689733        2.3886069612       24.5067179618
  H        17.3503073776        0.7504684522       24.4526130315
  C        18.4531542331        1.3972808355       22.6971064494
  S        12.2387478456        6.0702046367       12.0580665538
  C        11.5980399998        8.6779349644       11.5189408765
  H         5.7298986012       -1.3473355434       39.2664342601
  H         5.8223973159       -2.9441551024       38.5410578646
  H         6.5964804163       -1.6009552541       37.6407347960
  H         2.3764432070       -1.4184287577       16.2984713188
  H         1.9636990124       -2.7096778737       17.1839024102
  H         3.1720891874       -2.9040562935       15.8835630413
  H        18.6648699663        2.3161035004       22.0818691769
  H        18.0582936340        0.6527458931       21.9635290843
  H        19.4114815223        1.0414231826       23.0824589258
  C        12.7788550844        6.9358824105       10.6346804149
  N        12.3082465487        8.1836213536       10.4926089559
  O        11.0805868353        9.8148862060       11.6345353710
  S        13.5520903862        6.0365637309        9.3243062717
  C        12.6003538284        9.0217306718        9.2662937609
  H        12.7287765659        9.9815860169        9.4905663555
  H        13.3959886223        8.6258353539        8.7506547903
  C        11.3439199167        9.0739890167        8.4007555572
  H        10.4603780445        9.4103878868        8.9839838974
  H        11.5261075594        9.7072744983        7.6101067179
  H        11.1131154369        7.9985917871        8.2415155758
  H        -3.5874634738       15.1155835481       16.9876706554
  C        -3.0519737506       14.1136317969       16.7495085561
  H        -3.9279625586       13.5236822047       16.8814763334
  C        -2.0238463176       13.7008241727       17.7789403150
  C        -2.5424786259       13.9132818613       15.3476649984
  C        -2.5595717271       13.4287058207       19.1517232692
  H        -1.4074367518       12.7878216300       17.4728339551
  H        -1.2644263252       14.4723516162       17.8364005897
  H        -1.5637540760       14.3776182119       15.3782252616
  H        -2.3954629588       12.9267156768       14.9474937956
  H        -3.0418025611       14.4595904474       14.5307373961
  C        -1.5387839474       12.8541069019       20.1347079430
  H        -3.2460298209       12.6271077147       19.1495438550
  H        -3.0601113589       14.2831121940       19.6499224232
  C        -1.8351569623       13.2870236826       21.5468168581
  H        -1.5923052016       11.7884318817       20.1043398266
  H        -0.5963662305       13.1049461504       19.7350825933
  C        -0.8375434351       12.6093338149       22.5236282352
  H        -2.8067090945       13.0686278007       21.7959322730
  H        -1.8085230533       14.3536235504       21.6692142976
  C         0.5069040338       13.2747050707       22.6742035987
  H        -1.4012694292       12.3209976963       23.4642883965
  H        -0.6142361018       11.6082374802       22.1170460768
  C         1.6113391710       12.4560853885       23.4205328791
  H         0.8917910082       13.4838461897       21.6576298626
  H         0.2199341400       14.1784725285       23.1808881451
  C         2.0025896321       11.1102646971       22.8269184582
  C         1.3124870533       11.6991030852       24.6611187942
  C         2.8027329539       13.4699543228       23.6622861828
  C         1.9359628816        9.9825775779       23.6391243882
  C         2.4039294674       10.7274491142       21.5524590662
  C         1.4952802723       10.3348002394       24.8763791978
  C         0.8781486605       12.3735623532       25.7579498496
  H         2.7702422262       14.2138846851       22.8374106459
  H         2.5380942413       14.0891250136       24.4736401264
  C         4.1039205203       12.7515643421       23.8787918866
  S         2.3900057063        8.5136909661       22.8019800971
  C         2.6146632452        9.3936903538       21.3559694210
  H         2.4461047020       11.4429195569       20.6669313810
  C         1.1017593118        9.8274235646       26.1144159879
  H         0.5270525117       13.3804324746       25.6476425145
  C         0.4806935856       11.8873014430       26.9508890216
  H         4.1856368817       12.0449919010       23.0527435592
  H         3.9792932988       12.2019310718       24.7699061011
  C         5.3885504967       13.6295218326       24.0460152947
  C         3.0825598848        8.7475829404       20.1273032705
  C         0.6228019488       10.5994152285       27.1667552971
  H         1.1278954564        8.7425558039       26.2869271730
  C         0.0786059745       12.3805116911       28.1232361527
  H         6.0785560928       13.2820557884       24.7944814072
  H         5.0906994878       14.6271486863       24.3459011782
  C         6.1607250710       13.7797002422       22.8528250784
  C         3.0652356998        7.3571784829       19.7418165121
  C         3.5383559066        9.6273198558       19.0669919308
  C         0.1971144235        9.9297581658       28.4374781468
  C        -0.0191951151       11.3124050336       29.0389411114
  S        -0.4234378861       13.8774850278       28.8244689197
  H         6.9206794326       14.5580556387       22.9124560122
  H         5.5536752822       13.9809534001       21.9215325194
  C         7.0988013322       12.5546629332       22.6600047723
  N         2.4535887259        6.3165966270       20.5586283189
  C         3.2748738202        6.8876806563       18.4723656386
  C         3.7932264760        9.1740178665       17.7739137624
  H         3.6858082114       10.6509919706       19.2230151498
  C         1.2844459237        9.1655673781       29.1803615643
  C        -1.1030499053        9.0803486602       28.1647503935
  C        -0.4313644666       11.7543990236       30.3156921692
  C        -0.7778926056       13.0767616461       30.3664863358
  H         7.5646193296       12.2469807859       23.5753924136
  H         6.5028518427       11.7804721361       22.2528412781
  C         8.2360951799       12.8293263324       21.5933827175
  S         2.6660218472        4.8881319555       19.8087227362
  N         3.0598888560        5.4949597621       18.3512543603
  C         3.5955684776        7.7749031950       17.3826851411
  H         4.0716441320        9.9102496001       17.0133296958
  H         1.6167662509        8.5167056512       28.4214980618
  H         0.8245484355        8.5303731038       29.8872274444
  C         2.4602693918        9.8936457606       29.7810336469
  H        -0.9776778333        8.5631053088       27.2197416728
  H        -1.3147355539        8.3896532102       28.9940772478
  C        -2.3535428030        9.9948893585       27.8145388776
  H        -0.5006499971       11.0767959220       31.1247983837
  C        -1.2174663323       13.8603301593       31.6058263447
  H         8.7836996415       11.8937672146       21.6800855854
  H         8.8582247280       13.6400996638       21.8987179520
  C         7.5541667427       13.0774027557       20.2355047744
  C         3.8390704840        7.2072468019       16.0740035526
  H         2.8288147630       10.7077036374       29.1101276025
  H         2.0907119473       10.4337598443       30.5979251098
  C         3.5075824127        8.9098803926       30.2449954193
  H        -1.9780136082       10.5695364751       26.9784104659
  H        -2.4991039748       10.7086865489       28.6016487142
  C        -3.5423808266        9.1345584039       27.4883548626
  C        -1.2524141541       15.2832617729       31.7379925750
  C        -1.5116067118       13.1004736828       32.9053754320
  H         6.7698750485       12.3278287589       20.0707967103
  H         7.1546637781       14.0194719046       20.2988983773
  C         8.4436395967       13.0180653817       18.9892293463
  H         3.6234590578        6.1682440098       16.0597102067
  C         4.0801266161        7.7293034127       14.7908358532
  H         3.8604668658        8.3442456904       29.4167472575
  H         3.0601474648        8.1762285562       30.9373570912
  C         4.6390606334        9.5972029135       30.9701612994
  H        -3.3890275784        8.3566601981       26.7357062204
  H        -3.7766312285        8.6307233444       28.3286297845
  C        -4.7274463027        9.9395658398       27.0575277371
  N        -0.9076820839       16.1829524473       30.7063441580
  C        -1.6088328540       15.8994308196       32.9358213119
  C        -1.9513629309       13.7651434206       34.0471785676
  H        -1.4096152561       12.0301376200       32.8837048080
  H         8.7956421857       13.9807969961       18.7345531882
  H         9.2877510192       12.4163975989       19.2441403405
  H         8.0179045966       12.5643357454       18.0849569543
  S         4.2872746076        9.3845387437       14.4695186789
  C         4.0591059709        6.7284747826       13.7044250482
  H         4.8774082000       10.4630640160       30.3630323113
  H         4.3526386003       10.0222360030       31.9261358347
  C         5.9104586686        8.7543570532       31.0010767164
  H        -4.4284582479       10.9308912191       26.6577507745
  H        -5.2241403546       10.3763302460       27.9547439382
  C        -5.7560871948        9.2624011000       26.1619042938
  S        -1.0039266279       17.6889765022       31.3520540347
  N        -1.6507445268       17.3332516868       32.7835429925
  C        -1.9027926283       15.2571972314       34.1367814026
  H        -2.0802088613       13.1118002365       34.9335578856
  C         4.5081727341        8.7650403218       12.7857163700
  N         4.5161830944        7.3963607079       12.6049774576
  O         3.8905500241        5.4674245993       13.8213996951
  H         6.6402761459        9.2244733412       31.7330896485
  H         6.4132957924        8.7795649537       30.0423674696
  C         5.6754600714        7.4135836922       31.6827197605
  H        -5.2302185492        8.7891140469       25.3329389927
  H        -6.2792094811        8.4474200596       26.6518806517
  C        -6.7726627537       10.2968722236       25.5923703097
  C        -2.2191316872       16.0186197423       35.2523668812
  S         4.8944459518        9.7481345348       11.3393204427
  C         4.6381563425        6.6861065301       11.3622103832
  H         5.5605638475        7.5463138566       32.7773064537
  H         4.8277184259        6.8484151603       31.3999372612
  C         6.8746068201        6.5045294039       31.5160073379
  H        -6.4923754929       10.4076373874       24.6025181893
  H        -6.7185126749       11.3149546526       26.0298139035
  C        -8.2967561344        9.9690615063       25.7697367568
  H        -2.2032816509       17.0442014416       35.0778687660
  C        -2.7143854068       15.6851443986       36.4981531727
  H         5.3790467592        7.0965709660       10.6696963214
  H         5.0324576772        5.7504456751       11.6311002280
  C         3.2624386080        6.5582049633       10.6366493329
  H         6.8791830672        6.0830764928       32.5347584341
  H         7.8444889742        7.0121958217       31.4333257906
  C         6.8065112994        5.5421411060       30.3336641219
  H        -8.9310000685       10.0939387260       24.8934834373
  H        -8.4064569743        8.9514249659       26.0847752943
  C        -8.8786609514       10.9331100308       26.7506197601
  S        -3.2918152024       14.1013814968       36.9134413306
  C        -2.9697702883       16.8054270989       37.4887712666
  H         2.3951304180        6.9362292311       11.1417317574
  H         3.3729912689        6.8359790016        9.5898048887
  H         3.1202189674        5.5397095614       10.6323151714
  H         7.6161130393        4.8177804797       30.1958897790
  H         6.6565524750        6.1078721769       29.3646887904
  H         5.8555268353        5.0664807638       30.3682937770
  H        -8.4492281825       10.7922255111       27.7415839642
  H        -9.9527133641       10.8075149197       26.9592037582
  H        -8.8689779704       11.9681485179       26.3604911649
  C        -3.8366771071       14.9364845210       38.4515127597
  N        -3.6922741293       16.2954896865       38.4750742767
  O        -2.6302153761       17.9849490759       37.3475237714
  S        -4.6175101642       14.2037616334       39.8340268653
  C        -4.0071033490       17.1468751661       39.5872695541
  H        -4.3190749759       18.1655342023       39.3671279813
  H        -4.8069845477       16.7378707820       40.1776371408
  C        -2.7303915400       17.1818449857       40.5113765735
  H        -2.9037799327       17.7774151930       41.4238761768
  H        -2.5453317901       16.2324440834       40.8572834928
  H        -1.9385990468       17.5828470860       39.9071973141
