352
 i =    41000, time =    41000.000, E =        24.5422452244
  H        11.7977226706        7.4503423401       32.3650459130
  C        11.5850609954        6.3486841961       32.1913494894
  H        12.5332328607        5.9136307010       32.0122034799
  C        10.4715630661        6.1454525565       31.1685846337
  C        11.0730937155        5.8092434896       33.5352459484
  C        11.1461622108        6.1286693211       29.8141397749
  H         9.9150754749        5.1942818861       31.1934208675
  H         9.6750805014        6.9284088238       31.1972066070
  H        10.9678075687        4.7135901622       33.5345423710
  H        11.7598385139        6.0118505393       34.3929125103
  H        10.1328026398        6.2251175517       33.8484595509
  C        10.3130551752        5.5757441590       28.7123898491
  H        12.0520054491        5.4754431530       29.9372647380
  H        11.5528288480        7.0760265552       29.4968972437
  C        10.8248763863        6.0239844773       27.3732248888
  H        10.4003426311        4.5040546517       28.9425825561
  H         9.2715705850        5.6891352961       29.0992452964
  C         9.9640596117        5.5388184176       26.2000635427
  H        11.9017547906        5.6699769987       27.3753121521
  H        10.8982352869        7.0863623127       27.3770935932
  C         8.7962979130        6.4605615352       26.0695153555
  H        10.5275734947        5.4419775471       25.2888651391
  H         9.7054257266        4.4964422148       26.3965877966
  C         7.5421880565        5.6595546032       25.4305858386
  H         8.4464063689        6.7309279377       27.0174462457
  H         9.0212487465        7.3247589608       25.4838006316
  C         7.1909896078        4.2667824592       26.1888719728
  C         8.0062856109        4.8791725219       24.1750491305
  C         6.3300989869        6.6177000212       25.0789269704
  C         7.4322149904        3.2022808441       25.3860711959
  C         6.6487551160        3.8814538468       27.4087236217
  C         7.8443133698        3.5218118831       24.0534575568
  C         8.3865932083        5.4952905700       22.9973789136
  H         6.5430327160        7.2758313243       24.3014534053
  H         6.0201602021        7.2440552068       25.9056078624
  C         5.0362151305        5.8538059581       24.6829403822
  S         7.0600397452        1.6453997055       26.1381953631
  C         6.4377083107        2.5179278096       27.4842553459
  H         6.4252011315        4.6872125349       28.1341970911
  C         8.0148453682        2.8692399847       22.8809224812
  H         8.3536602707        6.5204325659       22.9900901210
  C         8.6428005639        4.8693599455       21.8316106838
  H         4.9889632283        5.6002003038       23.6244077943
  H         4.9403218831        4.9044809535       25.1782823241
  C         3.7965707574        6.7440915293       24.8272305386
  C         5.9689789928        1.7629655130       28.7351316483
  C         8.5305923082        3.5387552056       21.7475913847
  H         7.8153984261        1.7845729725       22.7982958762
  C         8.9681329458        5.2721194200       20.5009909766
  H         2.9495462964        6.4522499525       24.2501865935
  H         3.9653310247        7.6933466262       24.2975938402
  C         3.2060717155        6.8791000500       26.2461338111
  C         5.8384704717        0.3897012673       28.9284530941
  C         5.5188520386        2.5768843030       29.8895546562
  C         8.8950093846        2.8189085883       20.4253962798
  C         9.1565606853        4.1819420860       19.6939309114
  S         9.3064319708        6.7638029540       19.7165970062
  H         2.4362591624        7.6138052343       26.3260930072
  H         4.0392429278        7.1422285709       26.9160297190
  C         2.5701067152        5.5933997888       26.7402227745
  N         6.2507239830       -0.6048338480       27.9901437714
  C         5.5856542845       -0.1841295821       30.1987623973
  C         5.0878069295        2.0431480756       31.0806098844
  H         5.6146707041        3.6352591493       29.9542418373
  C         7.7705035015        2.0056950113       19.8516813789
  C        10.1564301132        1.9173659931       20.4424544089
  C         9.4419943010        4.5947016121       18.3427473900
  C         9.6094260305        5.9266645558       18.2230044938
  H         1.9290315227        5.1646593209       25.9779674625
  H         3.3261916573        4.8500630970       26.8503105719
  C         1.8278276987        5.8331171144       28.0950620343
  S         6.2124476526       -2.0107177626       28.6598346894
  N         5.7728277722       -1.5699464008       30.1642870577
  C         5.2127333694        0.5892424719       31.3500894695
  H         4.8401347490        2.6813591011       31.8571328790
  H         7.6779788761        1.2027102829       20.5984208534
  H         8.1456024567        1.6675732416       18.8446428507
  C         6.4925867228        2.8261742083       19.5254314388
  H        10.1678160308        1.2158204178       19.6043309643
  H        10.0820620288        1.1788537592       21.2490284366
  C        11.3977055742        2.6749357898       20.6675604620
  H         9.5172838885        3.8038795869       17.6145532530
  C        10.0607532465        6.6219601535       16.9626037094
  H         0.9022173415        5.2240742778       27.9981856127
  H         1.2737507402        6.7808000389       28.2231669200
  C         2.7324325869        5.5403350652       29.3687541152
  C         4.9316288069       -0.0884205766       32.5622750799
  H         6.6454294834        3.6448647749       18.8600859243
  H         6.0709174380        3.2988896218       20.3378255481
  C         5.3365739015        1.9417749477       19.0704000060
  H        11.1825465287        3.1575101156       21.6256369868
  H        11.5828222601        3.4771765379       19.9092699723
  C        12.6718206439        1.7858792128       20.7203815062
  C        10.2998410572        7.9974513237       16.8135883240
  C        10.1655320575        5.8006160066       15.7323620375
  H         3.2141964067        4.5199050141       29.2742440638
  H         3.5773550051        6.2439091913       29.4660536152
  C         1.9266893946        5.6483969797       30.6112992134
  H         5.1071699110       -1.1709345805       32.5348618805
  C         4.6425729088        0.3369527296       33.8372803829
  H         5.1794334860        1.0453412136       19.7208671256
  H         5.3859381052        1.5513957823       18.0390558210
  C         4.0586877949        2.7234088960       19.1392344511
  H        12.6597894893        1.0521914519       21.5141291455
  H        12.6967430676        1.0941187421       19.8663557261
  C        13.8322928633        2.7261498992       20.8222341897
  N         9.9483848688        9.0266014146       17.7779539020
  C        10.5388025505        8.5931921881       15.5927199890
  C        10.6387500032        6.3675981674       14.6004135700
  H        10.0238982900        4.6787545886       15.6889176406
  H         1.1530857687        4.8920326999       30.5651449096
  H         2.5659345322        5.3397928813       31.4388997937
  H         1.3608835491        6.5204824596       30.8740035853
  S         4.2934241577        1.9900594330       34.1949424247
  C         4.4295840101       -0.6462512371       34.9011086274
  H         3.9305505313        3.0126508865       20.2040070382
  H         4.0455649425        3.5359717205       18.4893028453
  C         2.8658815421        1.7389767100       18.9593457982
  H        13.6520538822        3.6599825065       20.2961944761
  H        14.5061801932        2.3642301246       20.1417282003
  C        14.4812323500        3.0126410904       22.1388268502
  S        10.0906868332       10.4516664106       17.0885866222
  N        10.4588919146        9.9505356880       15.6346430546
  C        10.7505950984        7.8108408295       14.4590062843
  H        10.7676666510        5.8112416921       13.7234300178
  C         3.8844350824        1.4122990525       35.7882198714
  N         4.0811964401        0.0644520008       36.0092334390
  O         4.5493814598       -1.8664185997       34.7839502887
  H         2.0161476701        2.3778977927       19.2757292119
  H         2.8715652157        0.8416455978       19.5952768718
  C         2.6221322680        1.3828286199       17.4760409511
  H        15.2115166993        3.8108854553       22.0062961707
  H        13.7222033459        3.4185597406       22.8433777539
  C        15.2321352886        1.8120364346       22.7421117689
  C        10.9621289114        8.5295483254       13.2656275466
  S         3.6947866790        2.4431194339       37.2584765102
  C         3.8883201882       -0.6029114161       37.2990524467
  H         1.5739274504        1.5972154094       17.2664800373
  H         3.2789873101        1.9493818156       16.8279018888
  C         2.8545815790       -0.0894928520       17.0629006500
  H        15.3087158698        1.1756231606       21.8797815799
  H        14.5603356071        1.3098159048       23.4158819189
  C        16.5352067591        2.1590363075       23.3812538577
  H        10.5967541938        9.5527764216       13.2635207776
  C        11.5981938633        8.2625350845       12.0350527375
  H         3.4566751628        0.0090122761       38.0883662227
  H         3.3321563913       -1.5303229663       37.1081854858
  C         5.2699051929       -1.0008544594       37.9006013406
  H         3.8465045767       -0.2476300833       17.4561575394
  H         2.8042853634        0.0020124650       16.0068116209
  C         1.9114973626       -1.0593609291       17.7254455261
  H        16.4428199665        3.0519193388       23.9594709646
  H        16.8598033324        1.3917733539       24.1645105707
  C        17.6794949277        2.3544611335       22.3396910807
  S        12.3197190033        6.7513917171       11.6532416379
  C        11.5024433592        9.3127949390       11.0275739730
  H         5.2794050934       -1.9135908112       38.4217686876
  H         6.0118928800       -1.1280925966       37.1080129505
  H         5.4779041093       -0.2358810786       38.6972161300
  H         2.2796730826       -1.8041554487       18.4492155230
  H         1.4291719390       -1.5236429718       16.9298206552
  H         1.1362445984       -0.5389349100       18.1508473998
  H        18.5645788566        2.6853260332       22.8915451059
  H        17.4984416445        3.0899478863       21.5903987521
  H        18.0121393772        1.3830046646       21.9103371941
  C        12.7704123462        7.6352539487       10.1425009324
  N        12.1613573322        8.8422272445        9.9761021752
  O        11.0062638213       10.4238507845       11.1981578455
  S        13.4182967666        6.9033786823        8.6589835345
  C        12.3309125489        9.7048178386        8.7836838033
  H        12.4215337217       10.7011404778        9.0256894692
  H        13.2532546819        9.4515100485        8.2622741802
  C        11.1367401399        9.5980408093        7.8326978336
  H        11.2113938291        8.6376027330        7.3480371986
  H        10.1505919469        9.6916049041        8.3654926392
  H        11.2591818020       10.4449155563        7.1342432485
  H        -2.9531295470       15.5620606811       16.8222269317
  C        -2.8400863603       14.4816175545       16.5599903869
  H        -3.8064237291       14.0448799768       16.6039435588
  C        -1.9154073078       13.9244978751       17.5679479463
  C        -2.3577000401       14.4008127337       15.1186829449
  C        -2.2985035147       14.2013072661       19.0201187539
  H        -1.6665803920       12.8191558874       17.5198692896
  H        -0.9930151702       14.3739275765       17.4409112456
  H        -1.2846419896       14.7349006446       14.9579951840
  H        -2.3491007440       13.3728027131       14.7281841615
  H        -3.0719435879       14.9168427071       14.4593518282
  C        -1.8495277080       13.1390378509       20.0038197426
  H        -3.3630712147       14.2140866066       19.2113050737
  H        -1.8486724174       15.2047683943       19.2306988145
  C        -2.3084712425       13.4046196588       21.3866403540
  H        -1.9671239577       12.0764956713       19.6598994082
  H        -0.7755780419       13.2722979348       19.9031404761
  C        -1.2852617599       12.9027969920       22.4517669949
  H        -3.3246909033       12.8878560744       21.4843769017
  H        -2.4488950298       14.4282672695       21.4796736849
  C        -0.0700649440       13.8372781346       22.6383303709
  H        -1.8067504611       12.6224391645       23.3982938981
  H        -0.9276292073       11.9350029290       22.0036904660
  C         1.2197541855       13.2219183974       23.3069287170
  H         0.1161333426       14.3368227300       21.6565270904
  H        -0.4360765129       14.6840605422       23.2222623709
  C         1.6090208860       11.8373347628       22.6442828529
  C         0.8924362712       12.4491831389       24.6204122452
  C         2.4564246296       14.1486550315       23.3140043555
  C         1.3530763972       10.7606611888       23.4550367428
  C         2.2647191233       11.4678615782       21.4381632850
  C         0.8662172678       11.0920871701       24.7269541153
  C         0.5497565446       13.2025697249       25.7393090088
  H         2.6414235392       14.4107892479       22.2233896533
  H         2.1302503452       15.1551180405       23.6831906772
  C         3.7668671535       13.5898825321       24.0501850959
  S         1.5892829225        9.2728682996       22.5968048174
  C         2.2172238580       10.0830313761       21.2193264160
  H         2.6430027557       12.2834307591       20.8327545886
  C         0.3372027444       10.4896884498       25.8552073515
  H         0.6258431796       14.2436102247       25.6327852494
  C         0.1056400428       12.5542026025       26.9212401679
  H         4.0982727781       12.6796394036       23.6223633905
  H         3.4788568328       13.3397040888       25.0606522159
  C         5.0242652776       14.4916831622       24.0654057907
  C         2.5000889881        9.4074346821       19.9307164115
  C         0.0106087171       11.2263712255       27.0025683693
  H         0.3579547627        9.4308330524       25.7835684520
  C        -0.4432801430       12.9135620195       28.1321194248
  H         5.7244086591       14.0915321356       24.8130472177
  H         4.7666399472       15.4232577457       24.5666213406
  C         5.7377933275       14.7377863944       22.6838180812
  C         2.5651364986        7.9849580353       19.6712720826
  C         2.9746848109       10.3199841082       18.8498268451
  C        -0.5075635088       10.4963991494       28.2191060519
  C        -0.7385253002       11.8143106827       28.9558386441
  S        -0.7190168953       14.3993690037       28.9777525103
  H         6.2873546570       15.7461410831       22.7919426325
  H         4.9395544296       14.8158939543       21.9772755793
  C         6.6248043818       13.5321921651       22.3259994554
  N         2.1808010597        6.9646994318       20.5529096089
  C         2.8313296348        7.5229630297       18.4194731171
  C         3.4317967442        9.7915212919       17.6136491405
  H         3.1499844762       11.4006547153       18.9731500798
  C         0.5570823256        9.7388908912       29.0399074586
  C        -1.8890057028        9.7696760310       28.1741624651
  C        -1.1733875773       12.1858518645       30.2258544706
  C        -1.1101234902       13.5559589894       30.4298840942
  H         7.2403005098       13.1469349390       23.1074662175
  H         5.9615387994       12.6516429335       22.2043460535
  C         7.5610986322       13.7099307799       21.0831931591
  S         2.2460571190        5.5366111100       19.7986969330
  N         2.7704664854        6.1120257667       18.3630653375
  C         3.2454268253        8.3116265115       17.3536520001
  H         3.9127533832       10.4656878318       16.9726184515
  H         0.6355021661        8.7266320600       28.7292669399
  H         0.2163120730        9.6181528180       30.1049297571
  C         1.9362537297       10.3702026993       29.0480274987
  H        -1.6942364017        8.8344377225       27.6134383982
  H        -2.1561430321        9.4052112892       29.1180319326
  C        -2.9697074071       10.5604773973       27.5234116268
  H        -1.5893894301       11.4414288362       30.8192588539
  C        -1.4204745729       14.3592249219       31.7019323683
  H         7.9921053529       12.7525440363       20.7457306743
  H         8.3836450378       14.3215779682       21.4664506059
  C         6.9001162835       14.3138188286       19.8567283939
  C         3.3907048414        7.6861284287       16.0586421889
  H         2.2695181803       10.5469639443       28.0606228614
  H         1.9107722845       11.2351639284       29.6170611276
  C         3.0687835156        9.4957774481       29.6195200743
  H        -2.6672443458       10.9276945449       26.5666635576
  H        -3.1844940288       11.4291844088       28.1379713033
  C        -4.2929749748        9.7246067209       27.3782539713
  C        -1.6016100117       15.7579121843       31.8413536160
  C        -1.7189871429       13.6123961727       33.0074657233
  H         6.5865372398       15.3252717757       20.0670515305
  H         7.6389281104       14.4517643030       19.0504176648
  C         5.6327237065       13.6760007556       19.3336915800
  H         3.1296563868        6.6771224982       16.0630365753
  C         3.6796213108        8.2070588447       14.8224817815
  H         3.7277863994        9.1434940461       28.7805410400
  H         2.4895232001        8.7109689368       30.0004664023
  C         3.9495266153       10.2741845716       30.6211315503
  H        -4.1975566213        9.0127590189       26.5907215615
  H        -4.4181925032        9.0828240264       28.2581288813
  C        -5.5287016192       10.4644403043       27.1246382419
  N        -1.5316833238       16.7247380214       30.7913117190
  C        -1.8941759801       16.4084307855       33.0564453852
  C        -2.0895125491       14.2805118084       34.1548044173
  H        -1.6794825911       12.5516796141       33.0316752687
  H         4.7501433978       13.9147872205       19.8770650755
  H         5.4933651169       14.0567376390       18.3295566607
  H         5.6567848125       12.6019179033       19.1323103549
  S         4.0968180723        9.8452236100       14.4181793308
  C         3.8085507478        7.2258840639       13.7168282642
  H         4.0549978601       11.3365152034       30.2586889009
  H         3.2643687043       10.3681556751       31.5135234388
  C         5.3117392160        9.6693930115       30.8226119097
  H        -5.1716256688       11.4108065853       26.7242149587
  H        -6.0513314693       10.6800376337       28.0353021222
  C        -6.4523059608        9.6999105690       26.2328493328
  S        -1.4771272827       18.1940304467       31.4273165668
  N        -2.0183234638       17.7959718738       32.9339374629
  C        -2.2431234944       15.7582603580       34.2449520226
  H        -2.2649531696       13.7117863453       35.0886738515
  C         4.4129931525        9.1501264050       12.7613936534
  N         4.3280145073        7.8312560129       12.6451318774
  O         3.6184266280        6.0278339520       13.8498566677
  H         5.8338401510       10.3061902419       31.5468638453
  H         5.9206337534        9.7266333717       29.9179332482
  C         5.1422933147        8.3383942482       31.4968138299
  H        -5.9258195735        9.1590814955       25.3875888679
  H        -7.0131540851        8.9251656002       26.7896406175
  C        -7.5666366932       10.6299394790       25.6243574596
  C        -2.5510092264       16.4745200433       35.4622048162
  S         4.8345630134       10.1317810022       11.3545773701
  C         4.4778169922        7.1236599765       11.3849751757
  H         5.1886615873        8.5213271609       32.5558920103
  H         4.1487679990        7.9245179799       31.2403638554
  C         6.2704605376        7.4569357461       30.9809450875
  H        -7.1205686062       11.1637507091       24.8252610205
  H        -8.0057447233       11.2803558493       26.3808841405
  C        -8.8223741880        9.9284242728       25.0568273226
  H        -2.4161394507       17.4950338495       35.4505157591
  C        -3.0663173188       16.0027859101       36.6878188972
  H         5.2570162216        7.5608896202       10.7094991542
  H         4.8084030542        6.0607712951       11.5403761201
  C         3.1271233711        7.0468454547       10.6295277395
  H         7.2601747396        7.6015877513       31.3864638932
  H         6.3902161764        7.5525475924       29.9216405117
  C         5.9631175568        6.0392354822       31.3051626082
  H        -8.9959489149       10.4985840643       24.2051823369
  H        -8.7070434459        9.0050253563       24.5592677571
  C        -9.9795346053        9.8070213858       25.9847895424
  S        -3.6282528719       14.3478918198       36.9601821176
  C        -3.3446189271       16.9616083745       37.7013559946
  H         2.7011780162        6.0971440464       10.8913778768
  H         2.5003222761        7.8415413567       10.9386727090
  H         3.2611724222        7.0325820924        9.5619457796
  H         6.1575435914        5.7954790952       32.2723536124
  H         6.6744142312        5.3821815875       30.7964788249
  H         5.0171433415        5.6845837424       30.8993696293
  H       -10.6954161652        9.0420998055       25.5139943480
  H       -10.3689118977       10.8006215225       26.1330279259
  H        -9.6654393206        9.2123383681       26.8398521382
  C        -4.1361014502       14.9838460977       38.5142757226
  N        -4.0167707259       16.3304317378       38.7112738349
  O        -3.0209351042       18.1280248889       37.6964621423
  S        -4.9853323249       14.0827741583       39.6960868407
  C        -4.2389557514       16.9230609134       40.0412184542
  H        -4.2705647718       18.0297917204       39.9607124230
  H        -5.2094177309       16.7488051897       40.5084823526
  C        -2.9658613517       16.7470197530       40.9097943684
  H        -2.0777366880       16.8591544709       40.3757248711
  H        -3.0625253372       17.3190950599       41.8112912893
  H        -2.9503744480       15.7147480844       41.1928786903
