352
 i =    76500, time =    76500.000, E =        25.0651035567
  H         9.4463235078        6.2644052864       32.3557997836
  C        10.5564479693        6.2702598896       32.5366860410
  H        10.6780341443        7.2464598656       32.9453686991
  C        11.4080478248        6.1509567092       31.1958167248
  C        10.9235542257        5.2904774060       33.6490030594
  C        10.7336722851        5.3635500566       30.0367291315
  H        11.6052607801        7.1526624050       30.8401636320
  H        12.3275385951        5.6760436512       31.5958631521
  H        10.1472873101        5.2818996571       34.4569761649
  H        10.8329705681        4.3863862432       33.0616016257
  H        11.9485218704        5.4521643888       33.9273803602
  C         9.8053576716        6.2154325355       29.0900201025
  H        10.1482162811        4.5119090605       30.3890908825
  H        11.4225714585        4.8055418216       29.4169492318
  C        10.1997851975        6.1060027178       27.6315979270
  H         8.7819531227        5.7765751496       29.2679337512
  H         9.6647694936        7.2491534769       29.3509835799
  C         9.2537085965        5.2077394530       26.7657070167
  H        11.2442546535        5.8176687170       27.5840141598
  H        10.2726766936        7.0819570408       27.0737043159
  C         8.0419030099        6.0007047719       26.2042405368
  H         9.8272373029        4.9115769945       25.9166538601
  H         8.8043860901        4.3400379349       27.3569267595
  C         7.0453320060        5.0324988424       25.5937688110
  H         7.6134358215        6.5656237804       27.0650811211
  H         8.3781413503        6.8427209321       25.4710624750
  C         6.7277353574        3.7025688711       26.3191646457
  C         7.6226222437        4.3139279767       24.4167218556
  C         5.7033691187        5.7473021604       25.2678635264
  C         7.0803211362        2.6104060665       25.5657259085
  C         6.1525836568        3.3525020594       27.5418269848
  C         7.6210814253        2.9808921531       24.3480307043
  C         8.1400997384        4.9907598852       23.3535464865
  H         5.2901551524        5.2425988374       24.4524710342
  H         5.9801560828        6.7195661720       24.8746847353
  C         4.7538162002        6.0379960548       26.4271585321
  S         6.7328404453        1.1290598612       26.2872582092
  C         6.0749874105        2.0036282306       27.7154891179
  H         5.9464725275        4.0746230911       28.2939649984
  C         8.0552203844        2.3903451534       23.2169398520
  H         8.1385747448        6.0810967958       23.2679350885
  C         8.3562279272        4.4020230146       22.1206892631
  H         5.1763657629        5.9492770222       27.3700217763
  H         4.5560710703        7.1840064892       26.3713615240
  C         3.3870478686        5.2979796637       26.3466475809
  C         5.6759916308        1.3608620746       29.0109452977
  C         8.3907348525        3.0760150644       22.0373200732
  H         8.1751905101        1.3760173449       23.1545564941
  C         8.8428354496        4.8078309005       20.9242186719
  H         3.6922748021        4.3021624257       26.5379142823
  H         2.9271867444        5.3528629650       25.3359930180
  C         2.4065753862        5.8654645049       27.3623669854
  C         5.7041911192       -0.0091591049       29.2918059404
  C         5.1188052278        2.2214916648       30.0847646076
  C         8.6993915630        2.3722326752       20.7428358937
  C         8.9974714256        3.7006665137       20.1266609525
  S         9.3265997868        6.2983410319       20.2910432201
  H         1.4010598974        5.7630297321       26.9992686859
  H         2.6346139628        6.9039553374       27.5304265802
  C         2.5807634083        5.2904445249       28.7231717726
  N         6.0841113365       -0.9909015987       28.3959471351
  C         5.3627262127       -0.5872675577       30.5167131577
  C         4.9476327666        1.6562340702       31.3454867959
  H         4.9284596961        3.2633496626       29.9689445089
  C         7.5667904612        1.6499229049       19.9833072265
  C        10.0518823617        1.5827542665       20.8794645630
  C         9.5175272770        4.0911146378       18.8965780269
  C         9.5925940781        5.4386421346       18.7848328872
  H         2.4588590389        4.2474463362       28.7239027023
  H         3.5394624172        5.6374496102       29.1266557354
  C         1.5820528311        5.8898462969       29.7077563524
  S         5.9098479790       -2.4787565435       29.1242285532
  N         5.4242165318       -1.9592664520       30.5432427653
  C         5.0115442865        0.1863699137       31.6181848389
  H         4.6509734989        2.2912211287       32.1470779070
  H         6.9816267661        0.9941740355       20.6206445287
  H         8.0572837759        0.9671824147       19.2154857344
  C         6.4778388575        2.5659192811       19.4675269364
  H        10.2043676958        1.1461417582       19.8995584531
  H         9.8634018160        0.7082029415       21.5401666347
  C        11.3081558843        2.3899883886       21.2451495870
  H         9.8072735524        3.3093380171       18.1548324748
  C         9.9104636531        6.1808967936       17.5554804210
  H         0.6045910145        6.1900716884       29.2004975579
  H         1.9684096053        6.7990136529       30.1575795032
  C         1.0903176317        4.9889240385       30.9093311885
  C         4.8634098018       -0.3848676946       32.9366929527
  H         6.8726356365        2.9637768506       18.5537449386
  H         6.3194971437        3.5990578535       19.9081718515
  C         5.0670587040        2.0111263041       19.2579956453
  H        11.1394518444        3.0210394652       22.1218079981
  H        11.6246029247        3.0468936703       20.3795274565
  C        12.4908282139        1.4859361039       21.5608915480
  C         9.8939768120        7.6099100691       17.3783372651
  C        10.0952603795        5.3552596593       16.3254928976
  H         0.6009813930        5.5993671232       31.6039683779
  H         0.2872946522        4.2530818126       30.5626748502
  C         2.1458134483        4.2781028642       31.6749245788
  H         5.0455988002       -1.4461209932       32.9724781132
  C         4.5043031010        0.0112269069       34.2258552029
  H         4.4117344551        2.9121383005       19.3078048600
  H         4.7245961167        1.3724553925       20.0326346421
  C         4.9149375629        1.2430367924       17.9840751661
  H        12.1141702025        0.6798636960       22.1964795066
  H        12.8760339246        1.0071595332       20.6290468061
  C        13.6018507093        2.2932902489       22.2570233742
  N         9.6027990785        8.5530262271       18.3753778776
  C        10.2738955836        8.1939364786       16.2011705588
  C        10.3986326797        5.9731845558       15.1217150569
  H        10.1338706733        4.3412247685       16.2477664725
  H         2.5756151377        4.7876915836       32.4571196118
  H         1.5445103803        3.6019490064       32.2361822209
  H         2.8779583622        3.7235455209       31.0944280423
  S         4.0985458162        1.5957060750       34.6975068143
  C         4.5906107980       -0.9938545832       35.2746331856
  H         5.3087976095        1.8209878806       17.1958812123
  H         5.4385569183        0.3079388700       18.0988011998
  C         3.4401774277        1.0374008572       17.6409095509
  H        13.2219357657        2.9789533032       22.9664148549
  H        14.1197691320        2.8709351754       21.4591310545
  C        14.8113488053        1.5732282313       22.8492983395
  S         9.7988391385        9.9903469631       17.7008867560
  N        10.2581558939        9.5608760561       16.1904152711
  C        10.5421872787        7.4266735975       15.0396429614
  H        10.3977171893        5.2944386357       14.3080043029
  C         3.9681165041        0.8909456950       36.3802618531
  N         4.2029894737       -0.4761513795       36.3979727307
  O         5.0358121698       -2.1445499499       35.1495494473
  H         3.3532077686        0.6592814187       16.6239043812
  H         2.8182225477        1.9649971600       17.6320087658
  C         2.7044727700        0.1113079358       18.5948331625
  H        14.6846994670        0.8792291673       23.6844120555
  H        15.3809660590        1.0469296869       22.0922334826
  C        15.8213023113        2.5705580145       23.4279537438
  C        10.7345503977        8.0645830668       13.7561225031
  S         3.2654850502        1.7047375401       37.8300252875
  C         4.2448815032       -1.3088028244       37.5922054559
  H         3.2301767751       -0.2814422550       19.4386311990
  H         1.8749971291        0.7985782731       18.9041863317
  C         1.9785090454       -1.0573530971       17.9131133920
  H        15.6391847529        2.7308220068       24.4959072751
  H        15.7196432305        3.6270561680       22.9858557608
  C        17.2149006027        2.0289042405       23.3066111613
  H        10.5765087145        9.1434307973       13.7825248411
  C        11.3145322026        7.6525310636       12.5554457788
  H         3.4598120780       -1.0847503860       38.3371285496
  H         4.0100182103       -2.2668636764       37.2560790203
  C         5.6545149681       -1.1341349754       38.2253671951
  H         1.5182384199       -0.7150960835       16.9382186959
  H         1.1541053383       -1.3670845931       18.5767224529
  C         2.9455994399       -2.1476603145       17.5864095533
  H        17.9778426206        2.4586568806       24.0121230874
  H        17.1316755735        0.9802875586       23.4022871896
  C        17.6755646376        2.1835737401       21.8479295952
  S        11.9619577681        6.1167755423       12.2035152412
  C        11.5065192821        8.6162724434       11.4755205522
  H         6.4324365172       -1.7041233928       37.7064338455
  H         5.9690952022       -0.0960260211       38.1751655913
  H         5.7162153658       -1.3957589445       39.2512547396
  H         3.6773748258       -1.8611619417       16.7827838918
  H         2.3934480340       -3.0449098603       17.3826764070
  H         3.5454876595       -2.3258257637       18.4888177846
  H        17.0748559471        1.7562298467       21.0974560531
  H        18.6903367009        1.7590131976       21.6991818207
  H        17.8590735113        3.2242418818       21.4997859357
  C        12.4270772753        6.7521741532       10.7108326733
  N        12.2748309965        8.0731751242       10.5339055591
  O        11.0450776176        9.7586539238       11.4253726989
  S        13.0462362537        5.7534697328        9.3240132487
  C        12.4566517169        8.8426267135        9.2900880582
  H        12.7750407192        9.8985692215        9.5522899108
  H        13.2762147882        8.6808586676        8.7322356588
  C        11.2790814622        8.8217266470        8.3627010029
  H        11.0236889639        9.9265633037        8.3236421568
  H        11.5436555918        8.4845685762        7.3599084403
  H        10.4183931589        8.3417961322        8.7553850508
  H        -3.4186946623       14.4169520481       15.9756901160
  C        -3.2603870307       13.3497611840       16.1045308619
  H        -4.2383935214       13.0063790064       16.3509901232
  C        -2.2080637095       13.2809780285       17.2045673035
  C        -2.8508699591       12.8130423882       14.7258209476
  C        -2.6830967135       13.7006482746       18.6160173037
  H        -1.8420505499       12.2150132363       17.3087887847
  H        -1.3054677903       13.8318916569       16.9205660747
  H        -2.2753774623       11.8937100493       14.8183426175
  H        -3.6826138293       12.5260011208       14.0122826106
  H        -2.2510295675       13.5916817687       14.1959343143
  C        -1.5679306435       13.9403530047       19.6481548475
  H        -3.4536444417       13.0098479358       18.9067248828
  H        -3.1900121591       14.6589864901       18.4851102722
  C        -2.1817933683       13.6150280292       21.0131502244
  H        -0.8300835009       13.2354093746       19.3539171553
  H        -1.0408432075       14.8779458733       19.5094405335
  C        -1.2393900276       12.9130161673       21.9909107008
  H        -3.0674225993       12.9204275705       20.9608889177
  H        -2.4530082740       14.6460582051       21.3954537208
  C        -0.1461174562       13.7951047184       22.5700215952
  H        -1.8202158570       12.5053495569       22.8753374417
  H        -0.9027005830       12.0072893637       21.5179170181
  C         0.9283382918       12.9845047680       23.3209785979
  H         0.3607844384       14.3703893634       21.7267321121
  H        -0.6470206954       14.5226585669       23.2414524823
  C         1.2876347095       11.6601378183       22.6581202833
  C         0.3432177798       12.2721934782       24.4766911033
  C         2.1442360936       13.8807068601       23.5307257466
  C         0.8548709830       10.5498434785       23.3571814847
  C         1.8640753915       11.2915129004       21.4667412763
  C         0.2281138171       10.9322498589       24.5029938952
  C        -0.1400569782       12.9392072592       25.6508792548
  H         2.4140347621       14.3719446933       22.5232690899
  H         1.7641121547       14.5786879405       24.2356354414
  C         3.4698838395       13.1047628451       24.0616339249
  S         1.3424128489        9.0089699797       22.6128322952
  C         1.8983043089        9.9100490747       21.2651070292
  H         2.2467415730       12.0390550198       20.8548904939
  C        -0.2509938766       10.3734517265       25.6802455456
  H        -0.1229401592       14.0110366140       25.6829844477
  C        -0.5700830758       12.3262926948       26.7722716933
  H         3.7457978040       12.3360712523       23.2453589746
  H         3.2434176114       12.6239314873       24.9753100431
  C         4.7264696798       13.9070816600       24.3399155954
  C         2.4365634207        9.2284876882       20.0703617185
  C        -0.6471275549       11.0309926019       26.8285013442
  H        -0.2284173393        9.3359212109       25.8052568232
  C        -1.0351239303       12.6733392129       27.9941548179
  H         5.4840392430       13.2946591100       24.8045580526
  H         4.6578215722       14.8698977949       24.9301049067
  C         5.3358673079       14.3217353669       22.9583175278
  C         2.3836285173        7.8615135314       19.7676631964
  C         3.0852730755       10.0425350167       19.0055652032
  C        -1.0640870265       10.2068168768       28.0080528893
  C        -1.3248698751       11.5626903780       28.7409099789
  S        -1.2616513834       14.1260634714       28.8578183894
  H         5.5645346577       15.4224313303       23.0091339322
  H         4.5551699065       14.0996528328       22.2294784641
  C         6.6442485594       13.4128297188       22.7185860259
  N         2.0799606534        6.8672722611       20.6877061529
  C         2.7249427390        7.3037520783       18.5403502910
  C         3.3307067600        9.4910265674       17.7284481670
  H         3.2155624338       11.1145954358       19.1392612729
  C         0.1403417083        9.3667084243       28.4864517677
  C        -2.3059241575        9.2681569437       27.6825050521
  C        -1.6538405811       11.9033887339       30.0598979638
  C        -1.6352219747       13.2360772836       30.2936695433
  H         7.3144990915       13.3046483335       23.5403544860
  H         6.2534407660       12.4086053554       22.5231470445
  C         7.5449401882       13.7340046591       21.5255930627
  S         2.0198487608        5.3855480197       19.9436704350
  N         2.5712919115        5.9276456956       18.5214095234
  C         3.1373204220        8.0494699298       17.4363214711
  H         3.6222065339       10.1817938659       16.9435781828
  H         0.3805486421        8.6302075196       27.6797587412
  H        -0.2063249404        8.6807018622       29.2480600987
  C         1.5056571260       10.1304135775       28.8337603892
  H        -2.1409710461        8.5586477765       26.9215039337
  H        -2.6159643141        8.7132317868       28.5623227472
  C        -3.5187571521       10.1216022690       27.2669756182
  H        -1.8862719236       11.0963713285       30.7904646865
  C        -1.8450327030       13.9321578145       31.6024982415
  H         8.2923593417       12.9793108377       21.4305862577
  H         7.9174936350       14.6903214942       21.5016930541
  C         6.7102156878       13.4021750804       20.2972124226
  C         3.4299941617        7.4061149611       16.2024928404
  H         2.0391486846       10.5553239153       27.9679839127
  H         1.2478840264       10.9482621209       29.4984456363
  C         2.5908872813        9.3561001163       29.5644565799
  H        -3.3115937250       10.5680630222       26.2753980693
  H        -3.6509648507       10.9196965646       28.0237885930
  C        -4.6796941207        9.2177461409       27.1717812618
  C        -1.9400841979       15.3040186335       31.8633616214
  C        -2.0150029420       13.0815856503       32.7613109035
  H         6.4150842569       12.3710658389       20.3631700448
  H         5.7913546315       14.0791506785       20.3205806158
  C         7.3642353646       13.7135422441       18.9753602348
  H         3.3072470997        6.3448684152       16.1596451502
  C         3.7560711404        7.8807865553       14.9814266860
  H         2.7948480658        8.5676405665       28.9275954373
  H         2.1633778033        9.0357626815       30.4884073384
  C         3.8163622798       10.2741364353       29.7386461635
  H        -4.6447758749        8.5042504562       26.3023700290
  H        -4.6878909789        8.6893560353       28.1287335760
  C        -6.0316953741        9.8736093900       27.0270169039
  N        -1.8385800736       16.3012519014       30.8387413191
  C        -2.1032946934       15.8815065009       33.1002720687
  C        -2.3361301997       13.6445972391       34.0032066596
  H        -1.9740056989       12.0217520181       32.7219333522
  H         7.5949569000       12.8071159434       18.4055290974
  H         6.6515197928       14.2678598191       18.3507886027
  H         8.3128583882       14.2077886713       19.2341026885
  S         4.1632504864        9.5311560756       14.4940605280
  C         3.8790780202        6.9344366845       13.8359534565
  H         4.3323668141       10.5507747774       28.7532605208
  H         3.4474211410       11.1985344410       30.1228080371
  C         4.9467313750        9.7064155187       30.6042640518
  H        -6.1776947966       10.8706530585       27.5972073498
  H        -6.7198997338        9.1547970613       27.4488331576
  C        -6.6196487127        9.7355529432       25.5542821052
  S        -1.8250373222       17.8107430141       31.5803398852
  N        -2.1705550328       17.3051503142       33.0393810371
  C        -2.4151526977       15.1152919958       34.2162961267
  H        -2.4638356113       12.9752342101       34.8547788066
  C         4.2256809104        8.9462624855       12.8422371798
  N         4.1399877104        7.6361782561       12.7043547030
  O         3.6666690944        5.6802052278       14.0226423993
  H         4.6011482442        9.2744123896       31.5807100293
  H         5.6315421052       10.5539271473       30.6734937139
  C         5.7917155788        8.6419038714       29.8274797738
  H        -5.9589997005       10.3124781100       24.9105276813
  H        -6.7288384994        8.6668390856       25.2860140544
  C        -8.0009592639       10.3842610087       25.4533581433
  C        -2.6781920749       15.7870806554       35.4451385531
  S         4.5498887296       10.0146102312       11.4341303608
  C         4.2732070935        7.0123603869       11.3613324313
  H         5.1799261370        8.2462379134       28.9980368360
  H         6.5030009566        9.2241745365       29.2868159248
  C         6.4566448001        7.4681859443       30.6801825416
  H        -8.0330402306       11.2345751859       24.7496606511
  H        -8.4133702144       10.6734523156       26.3792683942
  C        -8.9938894626        9.4344309852       24.8018563145
  H        -2.4093911135       16.7903804280       35.4003640112
  C        -3.1531961409       15.4051048530       36.6486433173
  H         4.9565458299        7.5502036450       10.7051740830
  H         4.7741075269        6.0991977521       11.6253558370
  C         2.8914113793        6.6285484890       10.8846614968
  H         6.6804147405        7.8612768449       31.6240943388
  H         7.2964965367        6.9765809568       30.2202942623
  C         5.4218186973        6.3177880270       30.9480495096
  H        -9.6564609135        9.9798128034       24.1224012097
  H        -8.6234210735        8.5496631380       24.2810826112
  C        -9.9195643913        9.0423887243       25.9176103091
  S        -3.9198776640       13.8730594679       36.9870701007
  C        -3.2297526722       16.3565120134       37.7595637293
  H         2.8502992392        5.6518449057       10.3182412562
  H         2.2523257052        6.6651210957       11.7968477184
  H         2.4914725632        7.3668445538       10.1679092499
  H         5.5432441286        5.4935724945       30.2708121566
  H         4.3806047679        6.5946408014       31.0202576894
  H         5.6036731622        5.8839976522       31.9534955276
  H       -10.7192169858        8.3228935339       25.5215062824
  H       -10.5369192046        9.8869723177       26.2515895886
  H        -9.3168242588        8.6638305457       26.7197645271
  C        -4.0455877256       14.4807200913       38.6458956655
  N        -3.8181572827       15.7949284175       38.7967132190
  O        -2.7119274284       17.4756417082       37.6895510630
  S        -4.8272044314       13.5426607834       39.9687243989
  C        -3.9352387759       16.6266759496       40.0256029681
  H        -4.1902134809       17.6158580531       39.6886034215
  H        -4.7163049808       16.1902570925       40.6079408993
  C        -2.6711948235       16.5507749983       40.9162302453
  H        -1.7642249523       16.6877962697       40.2759404744
  H        -2.7980340636       17.3555325553       41.6346647775
  H        -2.5255412205       15.6170780055       41.5066230889
