352
 i =    57100, time =    57100.000, E =        25.2432513942
  H        11.5502868850        4.8215272141       31.9420922556
  C        10.9956199856        5.7540968851       31.9626533334
  H         9.8724826911        5.5476668217       31.9783768759
  C        11.3870216950        6.7402042800       30.7889063325
  C        11.2512791290        6.5667244659       33.3055116157
  C        11.7319930125        6.0374765893       29.5030993560
  H        10.5294416060        7.4056812695       30.5747220016
  H        12.2448383104        7.4616098537       31.0159329991
  H        11.9386895342        5.9763873967       33.8589045679
  H        11.6340710821        7.5370005131       33.2148899285
  H        10.2651550126        6.6391721745       33.7174266762
  C        10.4929821364        5.9702210911       28.5916326523
  H        12.1267427299        4.9909072119       29.7065868167
  H        12.5668536027        6.5445630280       28.9558987556
  C        10.9684239455        5.4746590895       27.2126805300
  H         9.6847299288        5.4467717087       29.0559181513
  H        10.2648184259        7.0036878402       28.3951007697
  C         9.8885095639        4.8239938578       26.3341952795
  H        11.7300291796        4.7776564768       27.4782455388
  H        11.4462656802        6.2509963309       26.6808019697
  C         8.6596705519        5.6566667499       26.1331190406
  H        10.2388355237        4.3636238230       25.4499653283
  H         9.5874945588        4.0304288807       27.0458043281
  C         7.4939718681        4.9311940271       25.5754968106
  H         8.2960773353        5.9968572833       27.1118472028
  H         8.9064264579        6.6018619952       25.5321363493
  C         7.1485733689        3.5771195615       26.2982951613
  C         7.7698018792        4.2683596009       24.3451966429
  C         6.2739669689        5.8570972330       25.6862931136
  C         7.2879002484        2.5276715766       25.4890231304
  C         6.7484067196        3.2522615593       27.5346287142
  C         7.5670385390        2.9412673720       24.2388873898
  C         8.1721554269        4.9029857930       23.1786210534
  H         6.3077272012        6.7560512144       25.0245342186
  H         6.2062537443        6.1622750465       26.7354909148
  C         4.9342002957        5.1062887296       25.4391440316
  S         6.7948551603        0.9685573197       26.1802560714
  C         6.3892935743        1.9129378804       27.6973445499
  H         6.5181445565        4.0857110851       28.1598159182
  C         7.9580196156        2.3045987960       23.0749465194
  H         8.2497896030        6.0049858477       23.2982191854
  C         8.5398204587        4.2819313867       22.0042547605
  H         5.0239139794        4.4856554726       24.5425882237
  H         4.7587229147        4.3208034789       26.2160867092
  C         3.6662068803        5.9686117349       25.3159361538
  C         6.0462192827        1.1615407322       28.9711690716
  C         8.4486359510        2.9171449694       21.9285253029
  H         7.7160475153        1.2084870899       23.1024020865
  C         8.9222379948        4.6550793462       20.7421899292
  H         3.1004295626        5.6598817214       24.4600887422
  H         4.0162503041        6.9801438826       25.0254952935
  C         2.8056353232        6.1170086081       26.6276010903
  C         6.0055276681       -0.2147126982       29.1606418068
  C         5.6107694891        2.0171358203       30.0608953568
  C         8.8404737237        2.2368757388       20.6309540630
  C         9.1180717993        3.5696500616       19.9408852844
  S         9.1637624524        6.1621495513       19.8697533361
  H         2.2311019937        7.0460028302       26.5392793543
  H         3.5210807799        6.3676051616       27.4380323776
  C         2.0090677920        4.8757210052       26.9685514535
  N         6.4382993492       -1.2165064615       28.2324916418
  C         5.8235610262       -0.8044088771       30.3828879626
  C         5.3746917081        1.4368725366       31.3043502566
  H         5.3766887631        3.0459898900       29.8233457826
  C         7.6662832750        1.5009789877       19.9687143467
  C        10.1763051870        1.4028704242       20.7488190921
  C         9.4928764995        3.9682263789       18.6298644353
  C         9.5262385468        5.3111825325       18.3895689389
  H         1.1352477829        4.8285240892       26.2357093403
  H         2.5458021985        3.9781584030       26.5717341651
  C         1.4822631084        4.7435340088       28.4690038116
  S         6.4524195065       -2.6366386001       29.0610577973
  N         5.9216080767       -2.1806323385       30.4856394158
  C         5.4720005681       -0.0554567569       31.5272889009
  H         5.0585850706        2.0717794930       32.0496584765
  H         7.5075062079        0.6129885122       20.5759732945
  H         8.1246388911        1.2019583650       19.0105726340
  C         6.3434874798        2.2888892736       19.6568628767
  H        10.3797675517        0.8295615989       19.8360217402
  H         9.9638808182        0.6152353106       21.5725026524
  C        11.3529313154        2.2816013338       21.0902483690
  H         9.5145414663        3.1212305627       17.9492004011
  C         9.7557137954        5.9914751976       17.0479515602
  H         1.0276222196        3.7584153923       28.3560876338
  H         0.5711238293        5.3271911771       28.6388181447
  C         2.4431682401        4.8701163519       29.6344922632
  C         5.3705350302       -0.7310147807       32.8047734587
  H         6.4938758745        3.2925013578       19.8324932188
  H         5.5903484143        2.1366367950       20.4119131521
  C         5.7757149012        2.0049564425       18.2521060026
  H        11.2536661580        2.7291423170       22.0459184371
  H        11.4845766399        3.1080312281       20.3749291482
  C        12.5755200367        1.3185375562       21.1070022778
  C         9.9681806569        7.3638042543       16.8965377802
  C        10.0851483342        5.1944612867       15.8562056330
  H         3.0819905408        3.9939310670       29.7266506488
  H         3.0715029612        5.7514004636       29.3810173303
  C         1.7306705555        5.2152895599       30.9865889789
  H         5.5749766191       -1.8191974628       32.8311494303
  C         5.0807409879       -0.2136936642       34.0358933256
  H         5.8776895641        0.9445434210       18.0339840419
  H         6.3437551446        2.5278651502       17.4853121638
  C         4.2638825728        2.4054231360       18.1923184874
  H        12.5201729276        0.5789885830       21.8592659373
  H        12.4633400984        0.6577682470       20.2953008144
  C        13.9549965058        1.9344278654       21.0829108844
  N         9.8587282010        8.3032840403       17.9499375816
  C        10.3871608209        8.0163350569       15.7572648867
  C        10.4964185810        5.7866466607       14.6720486023
  H        10.0230851448        4.1252085473       15.7814456671
  H         0.8017571483        4.6525161963       31.0228539360
  H         2.2547699426        5.0973139800       31.9043140457
  H         1.4597502558        6.2488631428       30.9071437701
  S         4.6259515944        1.4116325437       34.4057054741
  C         4.9979571205       -1.1441793382       35.1634888079
  H         4.1244373998        3.3363870960       18.6819792357
  H         3.8902197210        2.7117500277       17.2487978871
  C         3.4426652384        1.2354132498       18.7876337503
  H        14.0202394086        2.6602750522       20.2592537101
  H        14.6728836579        1.2412876765       20.7785041187
  C        14.2978195895        2.7746027782       22.3009438365
  S        10.0237682991        9.8358370266       17.4351907349
  N        10.4843926928        9.3959715684       15.8952273358
  C        10.7127125605        7.3303169158       14.5609639830
  H        10.5507784258        5.1324627775       13.8226995972
  C         4.3774235101        0.7701401027       36.0077626924
  N         4.5521199460       -0.5057862020       36.2111999807
  O         5.2701077246       -2.3349770717       35.0658133855
  H         2.4686940350        1.6321719139       19.0855034471
  H         3.8838206844        0.7777053441       19.6885681974
  C         3.1162541728        0.0226754568       17.7631949500
  H        13.7029258383        3.7310985425       22.2139816111
  H        13.9458011277        2.4041292689       23.2759598745
  C        15.7061064736        3.1861540307       22.3754157898
  C        11.0378406694        8.0580535707       13.3739740888
  S         3.7819002374        1.6676133616       37.3951049291
  C         4.5537638004       -1.1056241335       37.5447673425
  H         2.4342477929        0.3915578909       16.9798591675
  H         4.0103044685       -0.1712320577       17.2711693394
  C         2.5497206966       -1.2654457484       18.4492781772
  H        15.7118089249        4.2373327319       22.6413239059
  H        16.1455055371        3.0549895419       21.3577052762
  C        16.5658384219        2.3159108180       23.3843869280
  H        10.8403910097        9.1428253886       13.4097634303
  C        11.6362856647        7.7092390693       12.1995649413
  H         3.8685198967       -0.7288645747       38.3015885335
  H         4.5097259661       -2.2055057728       37.4353069110
  C         5.9168545145       -0.8945189115       38.1703011726
  H         1.4848383670       -1.2680641591       18.1985597204
  H         2.5946402031       -1.3164215608       19.5498865222
  C         3.1582630363       -2.5424606070       17.7358165064
  H        16.6450184271        2.8479636828       24.3353018326
  H        16.1520242152        1.2956678894       23.5526452002
  C        18.0451927062        2.1435623430       22.8046582385
  S        12.1373979960        6.1332803962       11.7129499475
  C        11.6444615314        8.7716277173       11.0867623103
  H         6.6369575354       -0.2844558750       37.6271904241
  H         5.7763393128       -0.4704270257       39.1990971879
  H         6.3917785573       -1.8720346671       38.3178859323
  H         4.1484402294       -2.9163388239       18.0110335677
  H         3.0328808537       -2.3532858488       16.6727047531
  H         2.3001031109       -3.2374846587       17.8843982456
  H        18.3318953258        3.0982577948       22.2868369935
  H        18.0569158016        1.3654308673       22.0331091298
  H        18.7932969609        1.9113940448       23.4809999749
  C        12.4728953615        6.9153071258       10.1198283003
  N        12.3257628203        8.2648910274       10.0040331409
  O        11.3018665980        9.9281504988       11.1440968444
  S        13.2551968870        6.1309568604        8.7063080621
  C        12.5002324643        9.0421759950        8.7613973600
  H        12.4032821263       10.0591135189        9.0098922565
  H        13.4274391667        8.8313543187        8.3172647818
  C        11.3636439806        8.9837052297        7.7432004766
  H        11.5799454123        8.3092383858        6.9045393654
  H        10.3797804414        8.7269879270        8.2155440567
  H        11.1014867654        9.9881897218        7.2460208231
  H        -4.0497512235       13.0746050229       16.3389961151
  C        -2.9065252910       13.1151284831       16.2957962017
  H        -2.4500682592       12.1099944045       16.2497662704
  C        -2.4158664394       14.0474930419       17.4087360972
  C        -2.4392810350       13.6613510154       14.9624707963
  C        -3.1536666471       13.5569017441       18.6758012188
  H        -1.3514770683       14.2057963377       17.4308554911
  H        -2.8608700110       14.9715520500       17.0810811543
  H        -1.3544192939       13.6994105107       14.9026086845
  H        -2.8241030967       13.0039363360       14.1907474879
  H        -2.9466429121       14.5930052074       14.8222980808
  C        -2.0819741401       13.0326046459       19.7243791736
  H        -3.7511099196       12.6914898532       18.3811641997
  H        -3.8965525122       14.3062356938       19.1197287162
  C        -2.4540463797       13.1595095324       21.1637494162
  H        -1.8528198794       12.0176892531       19.6107141622
  H        -1.1383310658       13.6081745509       19.5860726395
  C        -1.3072932599       12.4288918666       21.9921448394
  H        -3.4409725484       12.7547084149       21.2468493021
  H        -2.4509554624       14.2086777231       21.4897024692
  C        -0.2316979181       13.3777397051       22.4191416115
  H        -1.7758858894       12.0657091399       22.8725973422
  H        -0.8114972032       11.6786138741       21.4210443391
  C         0.9316810478       12.7436585974       23.1606305176
  H         0.0890057813       13.9317189155       21.5362358516
  H        -0.5649332486       14.1804749388       23.1039380414
  C         1.3811584484       11.4157449673       22.6117343808
  C         0.4891068526       12.0278118135       24.4474370184
  C         2.1863753844       13.7370377259       23.3111669848
  C         1.2590464565       10.2952120152       23.4240173915
  C         1.8360698584       11.0765063909       21.3657676548
  C         0.7241947652       10.6761328394       24.6172731202
  C         0.0196990697       12.7201154738       25.6290842938
  H         2.5148372121       14.0956095685       22.3237780829
  H         1.8478909433       14.6140062710       23.8717302975
  C         3.3809033512       13.0687909141       23.9164234893
  S         1.8468870870        8.8659894730       22.7768108093
  C         2.1400269808        9.7409354326       21.3066419875
  H         2.0354475124       11.8820437920       20.6362860800
  C         0.3801818935       10.0886353222       25.7808207559
  H        -0.0401457520       13.8050416472       25.4846619463
  C        -0.2962482463       12.0989663146       26.8113686431
  H         3.7305443980       12.4019497125       23.1486542257
  H         3.1214220837       12.4899186199       24.7985608940
  C         4.5550432266       14.0091254307       24.2437174288
  C         2.5894520425        9.0288748908       20.0094980235
  C        -0.0830198045       10.7871690394       26.9322261532
  H         0.5996045893        9.0139110355       25.8208578389
  C        -0.5742917444       12.4970296224       28.1187788277
  H         5.2088386343       13.5624713075       24.9388605886
  H         4.1729110928       14.8184400479       24.7930426125
  C         5.4098989880       14.3715498424       22.9720074045
  C         2.6004393948        7.6550397905       19.7903397535
  C         2.9984179014        9.8396775717       18.8734664363
  C        -0.4538682737       10.0317860712       28.1781034737
  C        -0.6774387786       11.3835636290       28.9253490157
  S        -0.9781037518       13.9722412617       28.9240933666
  H         5.9709087170       15.3020012907       23.1668323945
  H         4.6595245849       14.5316743336       22.2214456974
  C         6.3338309282       13.2176274943       22.6272082193
  N         2.0492276057        6.6772716199       20.6730398045
  C         2.8255292535        7.1639221287       18.5377127256
  C         3.3474075015        9.3220671234       17.6227974662
  H         3.0918439453       10.8995089722       18.9172177963
  C         0.7154513699        9.1987398283       28.7914772617
  C        -1.7005774653        9.1300485919       28.1154529987
  C        -1.0210213486       11.7501571656       30.2230977078
  C        -1.1538988316       13.0921722357       30.3795330308
  H         6.8763700908       12.7741707790       23.4186258151
  H         5.7081284938       12.4415740235       22.2058501964
  C         7.3135032569       13.5008690115       21.4600668007
  S         2.1017066212        5.2202860842       19.9510802649
  N         2.5795692359        5.7228311419       18.4630944009
  C         3.3046013688        7.9064684548       17.4001211083
  H         3.7438771262       10.0361122278       16.9051764923
  H         1.1006020998        8.4260227738       28.0810625982
  H         0.2488262015        8.7224750066       29.7146014223
  C         1.9840289076        9.9554364483       29.2349505955
  H        -1.6453119381        8.4400500657       27.2952112019
  H        -1.8556918425        8.6947335886       29.0295734331
  C        -2.9720879194        9.9594980298       27.7725964368
  H        -1.3193570597       11.0265804512       30.9550461587
  C        -1.4187806882       13.8570393926       31.6329975658
  H         8.0289596352       12.7032607932       21.2927699580
  H         7.9732080336       14.3181375417       21.7252319177
  C         6.4728738076       13.8325421224       20.2590834133
  C         3.5390939598        7.2390903994       16.1973939589
  H         2.5446858265       10.4020664049       28.4588226601
  H         1.7454009057       10.6500414428       30.0019020781
  C         3.0187743121        8.9528121576       29.8385082345
  H        -2.5737369928       10.4934919626       26.8930656797
  H        -3.0871598878       10.6378102624       28.5498816172
  C        -4.2709137369        9.2512958254       27.4722957574
  C        -1.4277397998       15.2331817054       31.7885926606
  C        -1.6290879565       13.0935754088       32.8805265197
  H         5.6760578764       13.0665377368       20.0786618624
  H         5.9267706796       14.7189559171       20.4409925011
  C         7.2543803260       13.9881362952       18.9495612667
  H         3.7631087848        6.2115516624       16.3540741487
  C         3.7155052961        7.7129360157       14.8840266137
  H         3.2901003714        8.2195415778       29.1363384557
  H         2.5244798604        8.3182516380       30.5962301265
  C         4.2191820399        9.5591633280       30.4819505393
  H        -4.1244877046        8.3704015002       26.8612367856
  H        -4.7406554147        8.7797908592       28.3849231242
  C        -5.2267748699       10.1971772012       26.7650128993
  N        -1.2001853386       16.2045205622       30.8222381157
  C        -1.7477544571       15.8164115016       33.0274173068
  C        -1.8186937987       13.6622365967       34.1358948645
  H        -1.7235824256       12.0108008623       32.8298162884
  H         6.7413867170       14.8029665933       18.3644397382
  H         8.3302360923       14.2388826689       19.1111213086
  H         7.0979914712       13.0620813183       18.3751325159
  S         3.9406600637        9.3301931600       14.3115174700
  C         3.8440702963        6.7033331814       13.7860038009
  H         4.5192875157       10.4195920454       29.9101177834
  H         3.8418686396        9.9390499257       31.3977168348
  C         5.4490435955        8.5358145814       30.6005253820
  H        -4.8646051311       10.6138724536       25.8490400268
  H        -5.4852468953       11.0558784058       27.3798605141
  C        -6.5619184212        9.5230692557       26.3582746435
  S        -1.3428835191       17.6434794407       31.5014270973
  N        -1.7090838957       17.2110386725       32.9707951445
  C        -1.9172827716       15.0903450142       34.2334551220
  H        -1.9741722519       12.9606935955       35.0150092691
  C         4.1207072371        8.6440676235       12.6248830765
  N         4.1343741666        7.2494139655       12.6088343299
  O         3.8498824235        5.4791417775       14.0910720163
  H         6.0491082073        8.9539179606       31.4520870914
  H         6.0361504076        8.3480347653       29.8039904262
  C         4.9080673869        7.2001717338       31.1525179670
  H        -6.4278121820        8.5547494014       25.7046642918
  H        -7.0905006170        9.1932710033       27.2661193528
  C        -7.4425928049       10.4733977198       25.5259510148
  C        -2.1875808352       15.7617846037       35.4701013045
  S         4.4117179081        9.5842553371       11.2163915578
  C         4.2764750148        6.5363826356       11.3533191754
  H         4.0384905965        7.3021432446       31.8312276277
  H         4.4576741392        6.5838718013       30.3566905909
  C         6.0717670866        6.3098924225       31.7205322533
  H        -6.7209090536       10.8552562347       24.7953285972
  H        -7.6538138920       11.3697839192       26.1427559995
  C        -8.6790200353        9.8970836786       24.9518416722
  H        -1.8412828250       16.7643148733       35.4894932028
  C        -2.8040265229       15.2969866577       36.5878467215
  H         4.9279196204        6.9840108090       10.6320254983
  H         4.5973675465        5.5327893955       11.5221755047
  C         2.8686974831        6.5123055403       10.6915186162
  H         5.6971280395        5.4477964232       32.2185208590
  H         6.7184335594        6.8747840404       32.3192533302
  C         6.8635560836        5.7458078136       30.5683063551
  H        -8.9219482677       10.3804626935       24.0352433578
  H        -8.4471085992        8.8702502301       24.6188856894
  C        -9.9101528581        9.9022785132       25.8607020365
  S        -3.3183339579       13.6452725103       36.8765452416
  C        -2.9900082672       16.2327094949       37.7431580129
  H         2.3319711521        7.4327473571       10.6003867623
  H         2.8776811920        6.1540464177        9.6808994116
  H         2.2556365611        5.8295434144       11.2822488284
  H         6.2486292535        5.9467661686       29.6856872381
  H         7.2304819078        4.7495679943       30.7453179047
  H         7.7410935666        6.3459190036       30.3680686996
  H       -10.6559615720        9.2107357654       25.4848897683
  H       -10.2155688858       10.9423563108       25.9977404164
  H        -9.7680851022        9.4974750804       26.8538242312
  C        -3.8187219740       14.3068399063       38.4609955152
  N        -3.6221778588       15.6253671977       38.7081497567
  O        -2.5503264916       17.4063965650       37.7543325679
  S        -4.5519400680       13.3862328931       39.7622315387
  C        -3.8711129156       16.2729974039       40.0375054802
  H        -4.1490889516       17.3058063589       39.8163073013
  H        -4.6277510773       15.8054744576       40.6010034096
  C        -2.6561974188       16.3092614880       40.8335642371
  H        -2.1804010286       15.3420669347       40.8657762132
  H        -1.8889348140       16.7937167188       40.2728640146
  H        -2.8014535200       16.7696070581       41.7625115080
