352
 i =    28000, time =    28000.000, E =        24.6977242444
  H        11.6262049049        6.7134338901       32.6708288542
  C        11.4660200590        5.6295123992       32.4231094404
  H        12.4286599058        5.2429696039       32.0701854735
  C        10.4316333488        5.5958425556       31.3157477959
  C        10.9701093513        4.7624607279       33.6274015131
  C        10.9870479804        5.8202662267       29.9506083009
  H        10.1175499159        4.5720619473       31.4983466589
  H         9.6836524303        6.2453447756       31.6408224384
  H        10.1979003313        4.0520335701       33.3989338958
  H        11.8565609934        4.2251222895       33.9360230636
  H        10.6876021013        5.4262207102       34.3902183452
  C         9.9333461233        5.8252054320       28.8668629481
  H        11.7431159155        5.0106786242       29.7800639052
  H        11.4759992673        6.7387969825       29.9041406162
  C        10.6622810280        5.8189670813       27.5454133162
  H         9.2160551158        5.0252313078       28.9259814836
  H         9.3084312046        6.6841960382       28.9852095159
  C         9.9305448390        5.2051005743       26.3912710552
  H        11.5301266461        5.2361206781       27.6340304574
  H        11.0855262109        6.8130158464       27.3856580604
  C         8.7094709714        6.0084156504       25.9078899403
  H        10.6791656058        5.2196804378       25.6207537624
  H         9.6718432335        4.1661084400       26.5439152467
  C         7.5278744677        5.2227121847       25.2231323779
  H         8.4201929112        6.4116131399       26.8461735492
  H         8.9441249800        6.8767230171       25.3478610350
  C         7.2437662965        3.9462719657       25.9160282078
  C         7.9563472291        4.5056184478       23.9708607314
  C         6.2570037486        6.0329251156       25.1099553610
  C         7.2972788507        2.7976093579       25.1036956108
  C         6.8375935530        3.6328628987       27.1815382002
  C         7.7509114533        3.2024819820       23.7976730798
  C         8.2770356736        5.2214323166       22.7891623064
  H         6.3333964999        6.6883965512       24.2491965361
  H         6.1924352004        6.6973685912       25.9418012018
  C         4.9266783671        5.3114388954       24.7780820338
  S         6.8718426336        1.3713152106       25.9077802399
  C         6.5076397553        2.3117876704       27.3158810471
  H         6.7273743826        4.4356901476       27.9014311514
  C         8.0069168146        2.6773762296       22.5779863528
  H         8.3609639314        6.2911562268       22.8622826495
  C         8.4844573578        4.6566754142       21.5792449928
  H         5.0883200467        4.7017998851       23.8839790232
  H         4.7656164756        4.5603391450       25.5581573282
  C         3.7016661319        6.1534071357       24.5041590058
  C         6.0800813415        1.6353865374       28.5838135364
  C         8.4240973957        3.3683116530       21.4699325119
  H         7.8191785079        1.6058435704       22.4966885520
  C         8.8328859328        5.0365270300       20.3407869800
  H         3.1783948333        5.6202601412       23.7665626291
  H         3.9790088652        7.1069464436       24.0772974790
  C         2.8746475972        6.5349653889       25.7185457207
  C         6.1445228414        0.2230109183       28.8136919968
  C         5.5752314712        2.4868656008       29.7211591341
  C         8.7151317529        2.6352971263       20.1583628647
  C         8.9676852948        3.9734960405       19.4803507942
  S         9.1654541654        6.5875796513       19.6765400540
  H         2.0911860708        7.2528905399       25.4223102204
  H         3.5416895780        6.9930675241       26.4772881995
  C         2.1311352853        5.3053306557       26.2447685582
  N         6.5071065883       -0.6980425658       27.8466661207
  C         5.7791458531       -0.3353901155       29.9978105480
  C         5.2532656545        1.8876028650       30.9307976701
  H         5.4103857316        3.5604790976       29.6354041140
  C         7.5148476310        1.8710291326       19.4961722865
  C         9.9541401687        1.6588517571       20.3884658014
  C         9.3454496907        4.3807948317       18.2159966258
  C         9.5032196489        5.7716532792       18.1764879669
  H         1.3899092994        4.9280173580       25.5058978679
  H         2.7809907637        4.4010479799       26.3906564174
  C         1.4815674045        5.6520251922       27.5880005621
  S         6.2865696178       -2.1890746188       28.4681519703
  N         5.7864584168       -1.7592669474       29.9479067739
  C         5.2834648419        0.3915248728       31.0837920164
  H         5.0921119392        2.5944675154       31.7233387070
  H         7.2365797300        0.9464284196       20.0125771566
  H         7.8328062493        1.5189962649       18.5541051168
  C         6.2359249750        2.6914185963       19.3224412159
  H        10.1505137581        0.9948761471       19.5046864560
  H         9.6974744182        1.0465301523       21.1775611118
  C        11.2965342766        2.3586617272       20.7145844459
  H         9.3473920429        3.7538840525       17.3596327667
  C         9.9754402057        6.4799477415       16.9248025152
  H         0.7752495026        4.9129861271       27.8927049868
  H         0.8564454955        6.5374060020       27.5346632971
  C         2.4801893619        5.8677296008       28.7292466470
  C         4.9752556742       -0.3499074350       32.2844178716
  H         6.4231137169        3.6541979079       18.9473706112
  H         5.8535877265        2.8001224836       20.4112059550
  C         5.0820477889        2.0345535438       18.6689434384
  H        11.0749156503        2.9935840776       21.5846018489
  H        11.5191796663        3.1003495644       19.9551785643
  C        12.4764653132        1.4202915348       20.8153188762
  C        10.0353846304        7.8799512915       16.7560522350
  C        10.3101640100        5.6310793397       15.7108896473
  H         3.2307295884        5.0884341500       28.5983507516
  H         3.0753476620        6.7758800131       28.6171378146
  C         1.8044167247        5.8463073252       30.1602506171
  H         5.2467893086       -1.3469382399       32.1443119720
  C         4.6992259691        0.0934725636       33.5719900022
  H         4.8297795361        1.1149434971       19.1410912568
  H         5.2924036085        1.6325906611       17.6438741762
  C         3.7799290076        2.8588895469       18.4374253353
  H        12.3189090345        0.8097386615       21.7171761518
  H        12.5315615122        0.6527182457       19.9366771796
  C        13.7567864997        2.1319290875       20.9113252962
  N         9.8299623730        8.8693322201       17.7296423899
  C        10.4129266480        8.3560996582       15.5359678058
  C        10.5558920012        6.2199426118       14.4773807329
  H        10.2825277789        4.6083349942       15.7361019520
  H         2.5028601371        6.1518847797       30.8364655653
  H         1.0495040854        6.6397184978       30.0633277171
  H         1.2460509731        4.8936092623       30.2249429197
  S         4.2208307717        1.6594991194       34.0692444980
  C         4.6571983971       -0.9513912438       34.5841844854
  H         3.6909738030        3.7704884058       19.0829550394
  H         3.8912346260        3.3021705992       17.4501171089
  C         2.5082126413        2.0817764561       18.4886332650
  H        13.7651860815        2.9647822816       20.2219676469
  H        14.6125170890        1.4729855936       20.6422396702
  C        14.1085253323        2.7145586497       22.2998246931
  S        10.0837685441       10.3269341867       16.9944877496
  N        10.5372497192        9.7313689162       15.5455273156
  C        10.6606260883        7.6747137941       14.3493035756
  H        10.6615140479        5.5714385855       13.6510316930
  C         4.3940037498        0.9882599094       35.7265574442
  N         4.3916201355       -0.3957031779       35.7808508292
  O         4.8699247856       -2.1621064995       34.3164159898
  H         1.7509335823        2.7720107339       18.3475729761
  H         2.4529562088        1.6028883660       19.4485339381
  C         2.5117744043        1.0346382601       17.3846216683
  H        14.6554294687        3.6543770037       22.2273983880
  H        13.2432415248        2.8958614105       22.9117972536
  C        15.0627419495        1.8117132210       23.0403782053
  C        11.0199217219        8.3723483199       13.1503515939
  S         3.6806941215        1.8217902016       37.1098797126
  C         4.6104494191       -1.2852567391       36.9414618732
  H         1.5724989508        1.1092382735       16.7896753535
  H         3.2327449889        1.3364222358       16.6463119854
  C         2.6862126219       -0.3864405414       17.9777273513
  H        15.3511366121        0.9711313783       22.4462549286
  H        14.5375479614        1.4037885200       23.9191197467
  C        16.3699425043        2.4242914895       23.5614904788
  H        10.6834752066        9.4010620783       13.1562896338
  C        11.5671028232        7.9595428450       11.9600863636
  H         4.1192085369       -0.9243480869       37.8352403867
  H         4.1345006817       -2.1923225397       36.7254487910
  C         6.0087488962       -1.5269022091       37.2913508787
  H         3.3391967226       -0.4174445525       18.8373710672
  H         3.2047171906       -0.8644647661       17.1532366746
  C         1.4484632226       -1.1817745877       18.1375460225
  H        16.1454820437        3.2573889034       24.2627853504
  H        16.7840502286        1.7976065512       24.3354842630
  C        17.4120587946        2.6906110262       22.4745936696
  S        12.3364803729        6.4416990291       11.5885084597
  C        11.6335482935        8.9457286778       10.9287266460
  H         6.1638246584       -2.4116970276       37.7995615684
  H         6.7159771184       -1.4514623790       36.4461779799
  H         6.1917143403       -0.6970143739       37.9444166501
  H         1.5049464558       -2.1856518412       18.4533378074
  H         0.9466894668       -1.1308064363       17.1006787201
  H         0.6813273505       -0.6772358351       18.7997967602
  H        18.0788579499        1.8697256017       22.2095225836
  H        18.1295739896        3.4036520366       22.8950886377
  H        16.9471065248        3.1530032168       21.6534815741
  C        12.5879985522        7.2228308858        9.9777196221
  N        12.3000885944        8.5097561525        9.8932530673
  O        11.0375628713       10.0747264733       11.0269607753
  S        13.4336083329        6.4773507761        8.6003772307
  C        12.4480837357        9.4173676288        8.7177896214
  H        12.8336309999       10.3550042862        9.0509300985
  H        13.1837086103        9.0541994045        7.9966442264
  C        11.0843316050        9.5046402442        7.9610400632
  H        10.3531053520        8.7233239762        8.1895453827
  H        10.7355392320       10.5041009292        8.1636707642
  H        11.2584260464        9.5785138760        6.8784544776
  H        -3.6603529405       14.7800533300       16.2479738581
  C        -3.4026231319       13.7431087430       16.4175212884
  H        -4.2769027838       13.3674935380       17.0040584030
  C        -2.2284665004       13.7336892514       17.5048756136
  C        -3.2458969073       12.9689403292       15.1464998973
  C        -2.7015763185       13.7060491571       18.9729560828
  H        -1.5163803710       12.9402671689       17.2750312055
  H        -1.5732561141       14.7042548198       17.3709818052
  H        -2.4105116522       12.3709960841       14.9119587774
  H        -4.1052723736       12.3079651823       15.1127558114
  H        -3.4456973034       13.5838090142       14.2471480379
  C        -1.6140350750       13.3908153796       20.0134972235
  H        -3.4883782266       13.0458989625       19.1608282300
  H        -3.1210027120       14.7154787579       19.1218717922
  C        -2.2531849951       13.1917982049       21.3213172493
  H        -1.0089022722       12.5788781594       19.6849454162
  H        -0.9922663696       14.2429879066       20.1210410345
  C        -1.3249899695       12.6784396144       22.3562480652
  H        -3.1914780302       12.6322301246       21.2839886950
  H        -2.5101573259       14.1870223892       21.7025287185
  C        -0.2194235684       13.6946394850       22.7667193868
  H        -1.8999037198       12.4229238444       23.2290168959
  H        -0.8786119046       11.7593032867       21.9424232710
  C         1.0063801330       13.0146116170       23.4427290562
  H         0.2050584315       14.2050378314       21.9247630269
  H        -0.7048517568       14.3917605874       23.5105396363
  C         1.4277587024       11.6392052252       22.7177080144
  C         0.6559511784       12.2420680603       24.5900982648
  C         2.3021779381       13.8578714489       23.6150731599
  C         1.2622025276       10.5311161875       23.4744479159
  C         2.0345925434       11.2644642967       21.4981528758
  C         0.7117591736       10.8998370569       24.6920677789
  C         0.2425348364       12.9443174910       25.7104523274
  H         2.5350888840       14.3626268588       22.6323250052
  H         2.0419528428       14.6675531611       24.3325174392
  C         3.4614254239       13.0835478335       24.2171601318
  S         1.7270971627        9.0643640388       22.8118799588
  C         2.2052418405        9.9001211865       21.3448865182
  H         2.2374952153       11.9638107831       20.7533625274
  C         0.3517028293       10.3223407987       25.8409341595
  H         0.1270193930       14.0126538737       25.6791559722
  C        -0.0574328977       12.3669835483       26.9048411006
  H         3.6253312512       12.2360215686       23.5728687727
  H         3.0557892780       12.7430504417       25.1291966122
  C         4.7813063687       13.8273428613       24.5417026822
  C         2.6590621366        9.2825291847       20.0715830908
  C        -0.0799412934       11.0169816984       26.9758813665
  H         0.4787750749        9.2401632139       25.9856436203
  C        -0.5395503975       12.7133727027       28.1486659183
  H         5.3600397548       13.1267643057       25.1769144393
  H         4.6506006986       14.6406205753       25.2194491397
  C         5.6019312812       13.9854826136       23.2896773630
  C         2.4679167720        7.9475706788       19.7277873468
  C         3.1731911024       10.2000171359       18.9814312103
  C        -0.5377413274       10.2586853294       28.1486564635
  C        -0.8023744934       11.5860983819       28.8975085610
  S        -0.7673145958       14.2141778340       29.0469253360
  H         6.6005587037       14.3467261598       23.5399732051
  H         4.9999921587       14.7030132999       22.6705483902
  C         5.7901775438       12.7262587445       22.3696014149
  N         1.9967742697        7.0192488372       20.6784299375
  C         2.7634237229        7.4213614113       18.4849265041
  C         3.4186801720        9.6634603283       17.7064065621
  H         3.3573823716       11.2224334093       19.1900659825
  C         0.5821078965        9.5870457123       28.8840632721
  C        -1.7313492779        9.2850784399       27.7336552120
  C        -1.2654321464       11.9619396974       30.2048801901
  C        -1.2413190575       13.3166515539       30.4252019029
  H         5.8494560849       11.8015521741       22.8972588853
  H         4.7806907560       12.6188503011       21.9298421877
  C         6.9104688045       12.6979817246       21.3922975278
  S         1.8952538935        5.6164708664       19.9007761410
  N         2.4241555961        6.0535632088       18.4469589988
  C         3.2682073179        8.1797717083       17.4285380889
  H         3.9553324990       10.2556682151       17.0320620066
  H         1.1414251789        9.1399537723       28.0869489130
  H         0.1130715430        8.7977144807       29.5181081050
  C         1.6872153949       10.4647079774       29.5932784273
  H        -1.6084331098        8.9165145995       26.7068742615
  H        -1.7562189269        8.4737902493       28.4468224120
  C        -3.1167142625       10.0692665008       27.6360564473
  H        -1.3631082256       11.1946771025       30.9321313471
  C        -1.6342646240       13.9921484675       31.7147448374
  H         6.8064083540       11.8273256219       20.7784340926
  H         7.8503130055       12.6023741751       22.0446316131
  C         7.1380272357       13.9400918520       20.4866911642
  C         3.4298317132        7.5820972438       16.1483048463
  H         2.0345556979       11.1552142589       28.7864071885
  H         1.1262632138       11.0384028363       30.3722563540
  C         2.7149999133        9.5881254321       30.1824227548
  H        -3.1018619158       10.6639742778       26.7616384108
  H        -3.2999870426       10.6755514301       28.4921318043
  C        -4.2779098847        9.0859457619       27.6568305758
  C        -1.7035213304       15.4407265043       31.9112853397
  C        -1.8547926438       13.1765177683       32.9391378748
  H         7.5412944720       14.7380024818       21.0623608108
  H         7.9881237360       13.8911491370       19.7397426495
  C         5.8655489340       14.3325114220       19.7799646355
  H         3.3306985689        6.5062948321       16.2052837324
  C         3.6928002692        8.0740743494       14.9038400674
  H         3.2797524798        9.0337464411       29.4141347602
  H         2.1777169403        8.8973823174       30.8557825063
  C         3.7114053120       10.3155306465       31.1372828166
  H        -4.0595155287        8.3952569144       26.8845008030
  H        -4.3459412509        8.5191069918       28.5996891911
  C        -5.6551473588        9.7235445955       27.5962224799
  N        -1.4269620032       16.4066281975       30.9134252899
  C        -2.0708289925       16.0057104440       33.1258449455
  C        -2.1457884611       13.7676869012       34.1279289565
  H        -1.6500841197       12.0795671567       32.9646036098
  H         5.2498238801       13.4921737074       19.5251447985
  H         5.2709751550       14.9992123646       20.3935246888
  H         6.1449711508       14.7956403023       18.8591500738
  S         3.9445397992        9.7491535811       14.4282840637
  C         3.8164170045        7.0697518415       13.8383902565
  H         3.8392664155       11.3955915509       30.9185128055
  H         3.4523103435       10.2632972014       32.2183638375
  C         5.1216568600        9.7176030581       31.1001779910
  H        -5.6428361046       10.6752600777       28.1250101745
  H        -6.3717330605        9.1283287716       28.0945928638
  C        -6.0878451059        9.8828623631       26.1985749714
  S        -1.6590281294       17.8320423337       31.5297999845
  N        -2.0293636975       17.3759574461       33.0632104438
  C        -2.4388323040       15.2172853412       34.3065881186
  H        -2.3997536054       13.0927950478       34.9387009266
  C         4.2460735037        9.0175708414       12.8232228937
  N         4.0190444063        7.6523711904       12.6226511454
  O         3.5228633931        5.8244029532       13.9541085195
  H         5.7641397241       10.4759675311       31.5809236430
  H         5.4034529583        9.7851182398       30.0342114442
  C         5.2148530147        8.2906337875       31.7184897497
  H        -5.2219815108       10.0534845934       25.6422065240
  H        -6.5119263302        8.9391671726       25.7416141375
  C        -7.1453583407       10.9803987909       25.9745471405
  C        -2.6684052486       15.9211913972       35.5141382853
  S         4.8532164119        9.8835025358       11.4382657228
  C         4.0739214746        6.8683380727       11.4339903957
  H         5.5421987062        8.1696558118       32.7539785881
  H         4.2124303310        7.8429761874       31.7572037968
  C         6.1439879610        7.3917998366       30.8952069736
  H        -7.4284850745       11.0391111272       24.9406559613
  H        -6.7712539800       11.9832944012       26.3287677136
  C        -8.4388866838       10.8035984476       26.6971068775
  H        -2.4296710195       16.9523008181       35.2781521550
  C        -3.3203383667       15.6372652558       36.6901895407
  H         5.0445599329        7.0339031155       10.9416084249
  H         4.1361529063        5.7942331412       11.5703471194
  C         2.7968014172        7.1843233347       10.5266311500
  H         6.8881472403        7.9398129749       30.3467884601
  H         5.4105525471        6.8641921641       30.2300852642
  C         6.7051264880        6.1392208846       31.6103593483
  H        -8.2346524357       10.5891020297       27.7322467357
  H        -8.9294651734       11.7272938446       26.6386738265
  C        -9.3857237629        9.8382054001       26.0522243127
  S        -4.0385927775       14.1283144265       37.0574635708
  C        -3.5626598490       16.7304335507       37.6327983192
  H         2.3126881460        8.1018237428       10.8532971214
  H         2.9073926793        7.2571342735        9.5099079471
  H         2.0638767491        6.3669856461       10.4902733163
  H         5.8696477238        5.5545536897       32.0622676186
  H         7.2646290650        6.4414060484       32.5182606258
  H         7.3846471228        5.4858600085       31.0207012106
  H       -10.3689470462        9.9377019546       26.4474249060
  H        -9.1149182230        8.7772229603       26.1555608944
  H        -9.4992927624       10.0300872508       24.9442238253
  C        -4.4277266451       14.8881792078       38.6178019666
  N        -4.1710794124       16.2055265140       38.6842515024
  O        -3.3161493290       17.9129555193       37.3119958187
  S        -5.1598939242       14.0490986042       39.9862213964
  C        -4.2998685188       16.9384528813       39.9285535567
  H        -4.3339071449       18.0248209058       39.7260393458
  H        -5.2359326431       16.6347015075       40.4674176280
  C        -3.0239124032       16.6480554935       40.7750026311
  H        -2.5949004183       17.4637592523       41.3224253169
  H        -3.2943248453       16.0057922107       41.5692416352
  H        -2.2067973098       16.1415473222       40.2824569038
