352
 i =     9000, time =     9000.000, E =        23.5040197582
  H        11.9788762532        7.2471777290       32.2556370799
  C        11.6230561994        6.2226653578       32.3759008379
  H        12.5386849082        5.6952444571       32.2757305020
  C        10.5440892558        5.9305956985       31.4107856663
  C        11.1427150083        5.9650366845       33.8298183772
  C        11.1274562211        5.4931190723       30.0415247721
  H         9.8691299802        5.2237117398       31.8088775765
  H         9.9805005948        6.8262028770       31.1506399401
  H        10.2932840220        6.6627183556       34.0662718733
  H        10.8694788701        4.8896231852       34.0164748605
  H        11.9355603101        6.2320890933       34.5487576177
  C        10.1294557835        5.1607052408       29.0034145853
  H        11.8545787784        4.6927832078       30.1462228762
  H        11.8037921012        6.3058499462       29.7686332847
  C        10.7133053294        5.3571460610       27.6340404282
  H         9.8149955575        4.0878862816       29.1044233407
  H         9.2292755710        5.7393655899       29.0022991944
  C         9.8186791762        4.9751612828       26.4400786853
  H        11.6131528776        4.6953510621       27.6361063860
  H        11.0272172912        6.3533836095       27.5201122359
  C         8.5600048574        5.8238864984       26.3262367497
  H        10.4205772703        5.1920015449       25.5315232909
  H         9.5879104559        3.9399932775       26.4624582270
  C         7.3959733645        5.0693514978       25.6213608985
  H         8.2599102347        6.2818487520       27.2907075365
  H         8.7159519121        6.5818536249       25.6204411101
  C         7.0330245826        3.7570751151       26.2961031656
  C         7.7995929724        4.3021702009       24.3672792217
  C         6.2670744405        5.9872206926       25.3479568612
  C         7.2926554128        2.6311557707       25.6048548693
  C         6.4844916813        3.4576504570       27.5850294549
  C         7.7245022810        2.9483212718       24.3456002704
  C         8.2163373274        4.9031375904       23.1675840494
  H         6.6403260875        6.7669704652       24.6896439767
  H         5.9494867563        6.5161080032       26.2254590850
  C         5.0499550826        5.2934343879       24.8159279140
  S         6.9873007390        1.2125035042       26.5289281918
  C         6.3874707388        2.1240818821       27.8702015710
  H         6.1903760252        4.3275561957       28.1451818444
  C         7.9145394629        2.2532536464       23.2102114389
  H         8.3352806290        5.9709998764       23.0977202555
  C         8.3170567636        4.2148544875       21.9889191300
  H         5.3458313442        4.5809846915       24.0334848936
  H         4.7416215524        4.6620288033       25.6111340924
  C         3.7878126985        6.1371103729       24.5293227788
  C         5.9221296291        1.5936089050       29.2037802876
  C         8.2728333217        2.8384512252       21.9835657057
  H         7.7116424940        1.2329543496       23.2803872877
  C         8.7496985320        4.5416848992       20.7701985266
  H         3.2165451122        5.6778384990       23.7821239401
  H         4.0064346810        7.1644779796       24.1332395738
  C         2.9757896931        6.4169366952       25.8355574369
  C         5.6963752447        0.2372411056       29.4660676498
  C         5.7052373238        2.4622376947       30.3643006602
  C         8.6418684587        2.1004986622       20.7423918711
  C         8.9465421183        3.4603286975       19.9163815243
  S         9.1729295070        6.0096728219       19.9863735844
  H         2.4284070823        7.3950267656       25.8932434252
  H         3.6348565004        6.4729012802       26.6236254345
  C         1.9827595323        5.3785854795       26.1785744459
  N         5.8673603498       -0.7433780927       28.4962613750
  C         5.4218150955       -0.2671267538       30.7308172705
  C         5.2758551700        2.0287096342       31.6362760641
  H         5.9167626348        3.5035857367       30.3186425705
  C         7.4613939896        1.3087255683       20.0824531827
  C         9.8581078731        1.2299173324       21.0450803910
  C         9.3720423808        3.7875921879       18.6033226951
  C         9.5752333840        5.1462737509       18.4970882760
  H         1.3343914174        5.1846577121       25.3704196875
  H         2.4560226837        4.3836146735       26.2803602820
  C         1.2157024415        5.6530093198       27.4486624122
  S         5.8320068927       -2.1818420605       29.1895188188
  N         5.5682182346       -1.6478198548       30.7602219951
  C         5.2204868446        0.5569493444       31.8819774377
  H         5.2345781133        2.7529492666       32.3665298141
  H         7.3549297553        0.4379109531       20.7411509317
  H         7.9098915361        0.8679938209       19.1796077388
  C         6.2066156960        2.1625710440       19.7034967588
  H        10.0893086620        0.8131030033       20.0604959154
  H         9.5781487388        0.4022424489       21.7089219836
  C        10.9614884866        2.1628799120       21.7457746199
  H         9.5591125077        2.9725941534       17.9098566046
  C         9.9352444345        5.8925972964       17.2382051545
  H         0.3922589250        4.9230545921       27.4548032753
  H         0.6512717077        6.6174006164       27.4020349622
  C         2.0362986052        5.5117467118       28.6940779159
  C         5.0104530706       -0.1579216233       33.0998152890
  H         6.3238741020        3.2449570133       19.6059758524
  H         5.5337242806        2.0995586923       20.4608405287
  C         5.6591585357        1.5919935977       18.4631523246
  H        10.7302642661        2.2121233303       22.7579988228
  H        10.8324218599        3.1338465633       21.2778005176
  C        12.4239749391        1.8006665219       21.4912985170
  C         9.9807609345        7.3535530632       17.1158232585
  C        10.2303173345        5.1845906474       15.9479750338
  H         2.5998378080        4.5689289765       28.6684111262
  H         2.7980655699        6.2702808230       28.8783830003
  C         1.0940328586        5.4431573103       29.9103741264
  H         4.9485014946       -1.2121287160       32.9627420426
  C         4.6883237915        0.2083407717       34.3404582592
  H         5.7227497903        0.4839002839       18.4894457495
  H         6.3162913372        1.8619385297       17.6715836885
  C         4.1454250373        1.9236951383       18.1017995730
  H        12.5820320780        0.9079333505       22.1141214215
  H        12.6631121139        1.5050890054       20.4713305434
  C        13.3450408480        2.8618594075       22.0434032153
  N         9.6496624381        8.2457612511       18.1372533435
  C        10.3372588472        7.9521199173       15.9113361807
  C        10.5956019285        5.8199114813       14.7703945674
  H        10.1465267583        4.1248306725       15.9587408033
  H         1.6695513968        4.8043567995       30.6830713331
  H         1.0424207469        6.3503554304       30.4560027534
  H         0.1182321444        5.0309815636       29.6498809426
  S         4.3506744348        1.8600960657       34.8000357364
  C         4.6955631514       -0.8408594554       35.3867160847
  H         4.0471357595        3.0148804899       18.4016192619
  H         3.9400464502        2.0831137043       17.0319112551
  C         3.0477001547        1.1572632843       18.8790843126
  H        12.6441780242        3.4701016500       22.5911099044
  H        13.7092768602        3.4952948977       21.2551505561
  C        14.2670561253        2.3158518574       23.1155523925
  S         9.7033841457        9.7861480877       17.5191567521
  N        10.1720666291        9.3608308077       15.9842320744
  C        10.5614745671        7.2944857060       14.7050743712
  H        10.5893407458        5.3681750182       13.8167378040
  C         4.2418658725        1.1325203337       36.3833437889
  N         4.3855949212       -0.2201486567       36.5282550583
  O         4.9182816683       -2.0843010909       35.1761502726
  H         2.2357006541        1.8822935955       19.2047189811
  H         3.3773525687        0.5536381291       19.6598613734
  C         2.2588958094        0.3062892846       17.8357261086
  H        14.6201137644        3.1216175421       23.8220061968
  H        13.7124004259        1.6548987707       23.7665416564
  C        15.4515430626        1.5829893530       22.5395489507
  C        10.8291161041        8.0030329947       13.5244170772
  S         3.5445587846        2.0217858167       37.7543357157
  C         4.5322586468       -0.9591060018       37.7949921146
  H         1.2684304350        0.2539571731       18.1884874700
  H         2.1532369868        0.7884464058       16.8579448159
  C         2.8003860226       -1.0429908324       17.6003296064
  H        15.4544546057        1.8068526782       21.4359430495
  H        15.3229576738        0.5736880118       22.6236837978
  C        16.7975775936        2.0208641644       23.1290686883
  H        10.7545423955        9.1200731885       13.6636665685
  C        11.4286513448        7.7154091083       12.2634331519
  H         4.0674992329       -0.4209676208       38.5040260293
  H         4.1219445238       -1.9443997695       37.6483833032
  C         5.9817801021       -1.1102545778       38.1429109567
  H         2.7890618188       -1.5805719366       18.5782068556
  H         3.8730827343       -0.9833837148       17.3803002507
  C         2.1541047517       -1.8514161756       16.4948199348
  H        16.8410583823        2.7672803036       23.8938228252
  H        17.1347897894        1.0970184463       23.5439546261
  C        17.8793410073        2.2963156393       22.1007109317
  S        12.1670898144        6.2403548471       11.7043969122
  C        11.5428626320        8.8336529909       11.3187092483
  H         6.3233077507       -0.3474077217       38.9272658748
  H         6.1948748211       -2.1177942844       38.5889719894
  H         6.5382438575       -0.9336768814       37.2221068738
  H         1.1112374660       -2.1899905445       16.7524595683
  H         2.7880729219       -2.7700218048       16.3703296336
  H         2.0941152533       -1.2327142698       15.5777059676
  H        18.5975911261        2.9663896818       22.6231935768
  H        17.3519967244        2.7976955007       21.2561044373
  H        18.4308019252        1.3752057425       21.7653702196
  C        12.5204032570        7.0872211985       10.2996626401
  N        12.2921356339        8.3916549356       10.2648860794
  O        11.2006225964       10.0150967618       11.5927879781
  S        13.3794455346        6.3028288583        8.9475209146
  C        12.5636468027        9.2882229493        9.0940534230
  H        12.9590284860       10.2564327327        9.4005214882
  H        13.3226874070        8.9169012725        8.5273386994
  C        11.2829328229        9.4760539157        8.3261201630
  H        11.0510986358       10.4357778984        8.3184540161
  H        11.5262562299        9.1617611678        7.3249879437
  H        10.5154281150        8.8761101305        8.7743757728
  H        -3.5785371300       14.6229631761       16.4856903039
  C        -3.1553419191       13.5445445584       16.4257020089
  H        -4.0401913528       12.9014810296       16.6548714867
  C        -2.0368634208       13.4741238294       17.4964745427
  C        -2.6848839247       13.3212117927       14.9664760314
  C        -2.5512712514       13.9183907339       18.8762273071
  H        -1.6211997834       12.4630155957       17.5688047025
  H        -1.1855830350       14.1624171690       17.3013271034
  H        -2.4234573780       12.2708264755       14.8181711473
  H        -3.5175578478       13.4799797117       14.2841574465
  H        -1.9934404894       14.0927554735       14.7919536400
  C        -2.0099590532       12.9628696098       19.9366603662
  H        -3.6330431235       13.7681626646       18.9072399280
  H        -2.4177364664       15.0163360226       19.0580543314
  C        -2.5049213194       13.2718876948       21.3847467498
  H        -2.5311640026       12.0450208562       19.6619698954
  H        -0.8933824996       12.8646771606       19.9384856234
  C        -1.5940301020       12.6448385016       22.4853421683
  H        -3.4107287720       12.7783920047       21.5625359406
  H        -2.6526154294       14.3737488396       21.5775918502
  C        -0.3251064711       13.5149245198       22.7898347321
  H        -2.0935868540       12.6364584082       23.4858969603
  H        -1.3746438797       11.6152720892       22.1711143941
  C         0.9025322292       12.7272379790       23.4004293990
  H         0.0779966536       13.8283444065       21.8416394215
  H        -0.4711555332       14.4304371761       23.3544955141
  C         1.2319698494       11.4203603676       22.7421508390
  C         0.5121917858       12.0679741456       24.6815134555
  C         2.1414537919       13.6544299003       23.5879311151
  C         1.0160232974       10.3439043124       23.5625033053
  C         1.6528343254       11.0728365615       21.4088544461
  C         0.5816662998       10.7534854630       24.8163895387
  C         0.1417296428       12.7663667253       25.7975936831
  H         2.2779100863       13.9604714125       22.5404036958
  H         1.8709246438       14.4396086421       24.2621767153
  C         3.4495923217       13.0048347410       24.1556431520
  S         1.4530054840        8.8620192095       22.7900468886
  C         1.8497568869        9.6940795826       21.3156511467
  H         1.9026580002       11.8704430946       20.6356092781
  C         0.2029072454       10.2304811935       26.0229963050
  H         0.2587588376       13.8531287803       25.6550022575
  C        -0.2784573012       12.2523640285       26.9896600845
  H         3.7243946381       12.2378111957       23.4609047483
  H         3.1105529493       12.5577772360       25.0452527848
  C         4.6579863609       13.9183740580       24.4209036264
  C         2.3830933192        8.9865662541       20.0849849444
  C        -0.2247861608       10.8924584493       27.1697710914
  H        -0.0012877078        9.1273114088       26.0327623674
  C        -0.6979414140       12.6660462974       28.2213960370
  H         5.3665964800       13.5976219361       25.1758682705
  H         4.3303517272       14.8610264230       24.6755097141
  C         5.4872664331       14.0812060738       23.0945843690
  C         2.4767541778        7.6435299799       19.9086786630
  C         2.8629872272        9.8403622406       19.0321804183
  C        -0.6878911368       10.2901984915       28.4166331955
  C        -0.8899384821       11.5903635503       29.0881256415
  S        -0.8161031730       14.1794222634       28.9918669138
  H         6.3030003226       14.8153442757       23.3170267210
  H         4.7774301198       14.6047024422       22.4281258306
  C         6.1529198601       12.8420411541       22.5851379014
  N         2.0750488300        6.6805325006       20.8104162284
  C         2.7978204846        7.1230580415       18.6700574785
  C         3.2377973297        9.3243103383       17.7452441831
  H         2.9963366347       10.8975269331       19.1147875552
  C         0.4148421993        9.5317440033       29.1408632269
  C        -2.0464938864        9.6102556534       28.2299949896
  C        -1.3840916356       12.0092864915       30.3382239775
  C        -1.3854932895       13.4212085234       30.4672496079
  H         6.9724270444       12.6648943891       23.2310579048
  H         5.5233361364       11.8907487001       22.4772652988
  C         6.7899039540       13.1564371282       21.1676178102
  S         2.2022050849        5.2125887273       20.0830113110
  N         2.7182916884        5.7030556669       18.6555615462
  C         3.1283858014        7.8814283264       17.5475280183
  H         3.5251103823       10.0469366450       17.0549616864
  H         0.7761005924        8.6486260622       28.5932503015
  H         0.0137312953        9.0703403850       30.0063191344
  C         1.5907849437       10.4149398242       29.6096951091
  H        -1.8144165719        8.6413138801       27.7607651189
  H        -2.3794530139        9.2427763710       29.2228832315
  C        -3.1764105681       10.3492044126       27.5521424460
  H        -1.7238929171       11.2159709659       31.0384938322
  C        -1.7383131480       14.2638590342       31.7058672134
  H         7.2863646691       12.2636372933       20.7420963796
  H         7.6477403637       13.8701963891       21.2585338162
  C         5.8925304074       13.8007755548       19.9872432991
  C         3.3594162233        7.2561980497       16.2684525490
  H         1.7831157436       11.2012572125       28.9373963351
  H         1.3378205752       11.0045435680       30.4826306693
  C         2.8615202940        9.6553750758       29.9774038478
  H        -2.8947829956       10.9849923408       26.7797809336
  H        -3.6506897264       10.9278117949       28.3540067435
  C        -4.1501732065        9.2780069331       27.0010104797
  C        -1.5894475339       15.6522283288       31.8278488268
  C        -1.9857214128       13.4386498636       32.9273875355
  H         4.7844931460       13.6148939165       20.1033174998
  H         5.8788883518       14.8509284119       20.3779620537
  C         6.2721586413       13.3887668696       18.5813607822
  H         3.3340025835        6.1549764204       16.4387335619
  C         3.7119686517        7.7399763083       15.0238765778
  H         3.2840387629        9.2798109117       29.0754902980
  H         2.6052030784        8.7865260119       30.5381771640
  C         3.9455922558       10.5140253122       30.6886615675
  H        -3.5459131512        8.6371405366       26.3477511807
  H        -4.5402183089        8.6533337661       27.7855332061
  C        -5.2520209401        9.9401894535       26.1183906147
  N        -1.3825021023       16.5566432706       30.7712684529
  C        -1.9126250239       16.2920811792       33.0192616494
  C        -2.1574009920       14.1714704464       34.1358901273
  H        -1.8234276186       12.3496783432       32.8824627382
  H         5.6190325638       12.6484651540       18.2202607554
  H         6.4301727529       14.2795692488       17.9762159749
  H         7.2481965315       12.8657564995       18.6076868695
  S         4.0283225693        9.3408525045       14.5361296471
  C         3.8313910047        6.6989036942       13.9966090908
  H         3.8440347101       11.5432452815       30.2114309454
  H         3.6860931788       10.6213738311       31.7856384311
  C         5.2945580293        9.8080244480       30.6498297191
  H        -5.5078453364        9.2295585373       25.4050387227
  H        -4.7911850367       10.7552878378       25.6056564605
  C        -6.4848860500       10.3210894937       26.9838288193
  S        -1.3096519675       18.0695128218       31.4066630227
  N        -1.9142082102       17.7236111975       32.8698939066
  C        -2.3400148672       15.6227054279       34.2350030572
  H        -2.3116382806       13.5143550350       35.0015072759
  C         4.3886126657        8.6822505837       12.9033430661
  N         4.2399571499        7.3097403275       12.8371004063
  O         3.6172079363        5.5015046538       14.1773881780
  H         6.0420825225       10.5565142177       30.9171476558
  H         5.4770876256        9.6373184014       29.5752824372
  C         5.3912453144        8.5420176914       31.4742302408
  H        -6.7866033151        9.4022184437       27.3868540269
  H        -6.1393577770       11.0048286238       27.7802138011
  C        -7.6075555003       11.0648987290       26.1583445014
  C        -2.6636188280       16.5000675778       35.3532607069
  S         4.9672405962        9.6633531984       11.5028657637
  C         4.3326931895        6.5522277618       11.6040735639
  H         6.2150419962        8.5425152433       32.2155989178
  H         4.4255227333        8.4998684539       31.9458008038
  C         5.5531976821        7.3407855028       30.4888403196
  H        -7.1499336983       11.8492877714       25.4685353882
  H        -8.3295455387       11.5520620416       26.7549371842
  C        -8.4223842118        9.9927738375       25.3837318144
  H        -2.4507401956       17.5796985403       35.2025842000
  C        -3.1549459832       16.1478165324       36.5537754648
  H         4.9886424799        6.9808153507       10.8714297522
  H         4.7274919042        5.5688921410       11.8991699228
  C         2.9890726326        6.4271599706       10.8438432314
  H         5.1100908251        7.5765430956       29.5631195813
  H         5.0205829865        6.4482331777       30.8739216182
  C         6.9868761441        6.9260711259       30.2316688957
  H        -8.2185567703       10.0026277470       24.3142536195
  H        -8.0933675600        8.9773338261       25.5693393518
  C        -9.9217462331        9.9867941215       25.7113582165
  S        -3.6667108373       14.6013721042       37.1081425626
  C        -3.2522248088       17.2086500291       37.5852933782
  H         2.8287658606        5.4394792888       10.3682131083
  H         2.1980882671        6.6534749017       11.5880919633
  H         2.9992959073        7.1450047443       10.0414913733
  H         7.3363047182        6.2252685605       31.0290660639
  H         7.7208602157        7.7704016050       30.3965938384
  H         7.1593244978        6.4533638715       29.2657667050
  H       -10.3499461086       10.9626288352       25.7687514505
  H       -10.0105200394        9.5724377239       26.7030496707
  H       -10.3099831269        9.3475909048       24.9282221079
  C        -4.0800242952       15.3897166436       38.6102422041
  N        -3.8661544162       16.6915819523       38.6516676891
  O        -2.8301126879       18.3709702538       37.3939019584
  S        -4.7733749655       14.6267700552       40.0046924390
  C        -3.9602378053       17.4217336794       39.8837851769
  H        -4.0834793145       18.4105946157       39.5296081576
  H        -4.8727299237       17.2244676696       40.3427934987
  C        -2.6532859456       17.3256224501       40.7236687232
  H        -2.3259874086       18.2531954664       41.2176454878
  H        -2.7509674698       16.5404721805       41.4229215531
  H        -1.8802987912       17.0224502248       40.0476992556
