352
 i =    57000, time =    57000.000, E =        25.0378120787
  H        12.5756726396        5.4034772278       32.1983467395
  C        11.5799566794        5.7427934772       32.0198497846
  H        10.8732662430        4.9193757030       31.7077843040
  C        11.5389984050        6.7195190753       30.8086479909
  C        11.0074835714        6.5232643893       33.2569708167
  C        11.7900330166        6.0853808614       29.4417208397
  H        10.5477573606        7.1653349701       30.6956368992
  H        12.2975259635        7.5352169332       31.0520503672
  H        10.5611944411        5.7364058302       33.8483072336
  H        11.7868294245        6.8290602684       33.8855797117
  H        10.3191639524        7.3613240373       33.0070547460
  C        10.5671931738        6.0898288898       28.5429092158
  H        12.2263328476        5.0828162188       29.5328105446
  H        12.4773490554        6.7548507655       28.9019111880
  C        10.8363605573        5.5694337613       27.1123018913
  H         9.8106246565        5.4855478249       28.9942579990
  H        10.2313915152        7.1157539937       28.5190249408
  C         9.6443043964        4.7388709374       26.5268449901
  H        11.7438526556        4.9962191768       26.9905568741
  H        11.0333484644        6.4643450894       26.5822881522
  C         8.3818758876        5.5746755093       26.3217903030
  H         9.9755251772        4.3191337844       25.6203355147
  H         9.3410357087        3.8124806033       27.0666274832
  C         7.2219199701        4.8346651952       25.6672154911
  H         8.0991989603        5.6833691345       27.3626190517
  H         8.5752565274        6.6124096198       25.8014527547
  C         6.9376755792        3.4745918128       26.3568662221
  C         7.5449802727        4.1633296074       24.4180503032
  C         6.0453998339        5.7711315110       25.4708174592
  C         7.2020372640        2.3687274517       25.5202100514
  C         6.6703106103        2.9771038568       27.6365495625
  C         7.6038687795        2.8231131646       24.2811516778
  C         7.8801368324        4.8939968154       23.2412169694
  H         6.4064500293        6.6456451549       24.8768958332
  H         5.8051088624        6.1993634551       26.4590584753
  C         4.9022148264        5.0337765178       24.8072214119
  S         7.0755268304        0.8605882239       26.2655893123
  C         6.4907999129        1.6219222672       27.7212925772
  H         6.3873050195        3.6356319354       28.3928769616
  C         8.0276342326        2.2762852201       23.0300898383
  H         7.8695729510        5.9022870939       23.4601006494
  C         8.3558903796        4.3833582453       22.0423029469
  H         5.0915489321        4.8477058019       23.7572362911
  H         4.7603670878        3.9926916322       25.1623243305
  C         3.5974859830        5.7834529516       24.9950432469
  C         6.1292084230        0.9746169938       28.9903889411
  C         8.3539758116        3.0652390640       21.8917286211
  H         7.7145908491        1.2950918560       22.9420724115
  C         8.8025578850        4.8207447033       20.8113458736
  H         2.8410234739        5.2408593955       24.4656305724
  H         3.6657688450        6.7514761387       24.4627009507
  C         3.0645461895        5.8954254397       26.3969773389
  C         6.1807294715       -0.4527590986       29.2272639892
  C         5.3580282395        1.7917068453       29.9696323001
  C         8.7055054266        2.3404548152       20.5856797322
  C         9.0473267750        3.7233553661       19.9833400865
  S         9.2500112301        6.2665441432       20.0803755020
  H         2.4342715184        6.7467478476       26.5589401316
  H         3.8522974288        6.2032523945       27.1324964502
  C         2.4197785377        4.6249497808       26.9364340739
  N         6.6361752764       -1.3621645211       28.2666315005
  C         5.7770959351       -0.9795125580       30.4529235073
  C         5.1028049620        1.3352289075       31.2856320532
  H         5.2162781290        2.8586504362       29.7703222972
  C         7.5138722229        1.6161255711       19.9762406740
  C         9.9009154216        1.3832323480       20.7938271628
  C         9.5304516093        4.1214575489       18.7562907541
  C         9.6041269548        5.4803099780       18.6168547209
  H         1.8811161155        4.0140220917       26.1416190439
  H         3.3290513342        4.0869010920       27.2174183474
  C         1.5393805176        4.8606637289       28.1992442230
  S         6.5811853116       -2.8647501775       29.0322045420
  N         6.0008340963       -2.3975656438       30.4619777867
  C         5.3767774593       -0.1719747491       31.5598001994
  H         4.7050597300        2.0961924803       31.9609072697
  H         7.1431899127        0.8504154706       20.6250549923
  H         7.9335141655        1.1820696734       19.0476762335
  C         6.3483915541        2.5803343420       19.5951427572
  H         9.9985861237        0.7058730613       19.9430161349
  H         9.7136070044        0.6821197736       21.6624272420
  C        11.2349301389        2.1862289268       21.0540778851
  H         9.6857986340        3.4397083376       17.9310050385
  C        10.0107599175        6.0899632386       17.3555992419
  H         0.9855637584        3.9629701502       28.5187652920
  H         0.7239913730        5.5514344756       27.8410448877
  C         2.2486400188        5.5662510938       29.3880942586
  C         5.2461553588       -0.6855934867       32.8654676622
  H         6.6465327832        3.6126599409       19.5412679530
  H         5.6988508862        2.5747093165       20.4394920314
  C         5.7370224139        2.2341218006       18.3076990941
  H        11.0432031548        2.7658786003       21.9024394899
  H        11.4944830174        2.9338808745       20.2814898992
  C        12.3353775400        1.1325743271       21.3498357734
  C        10.1331712234        7.4624296572       17.1357340567
  C        10.1787490176        5.2018121131       16.1464292582
  H         3.2681668681        5.2388659781       29.4158605537
  H         2.1292789488        6.5631357795       29.0892013171
  C         1.5626382837        5.2909975476       30.6520316551
  H         5.6540675769       -1.6994273352       32.9796801980
  C         4.8862375816       -0.2548262937       34.0913045602
  H         5.9245413157        1.1837773943       18.0569086732
  H         6.2518618572        2.8270111139       17.5482916592
  C         4.2775253834        2.4828122838       18.2544773892
  H        12.1522199561        0.6475641078       22.2261010894
  H        12.1850678413        0.3201677283       20.6407605753
  C        13.7231758243        1.7008819774       21.1082899401
  N        10.1049084644        8.4720953682       18.1465286732
  C        10.4202926003        7.9931755931       15.9114358956
  C        10.5359805711        5.7495864205       14.9193655114
  H        10.2756019655        4.0886485486       16.1991702296
  H         1.1527069848        4.3280035793       30.6518656420
  H         2.3106666436        5.3669838615       31.4241426259
  H         0.7603637137        5.9657965001       30.9002280667
  S         4.3880004874        1.3363641072       34.4924939267
  C         4.9553539328       -1.2401458468       35.2168056563
  H         3.9904840233        3.4731787334       18.6379761382
  H         4.0489670533        2.6206089495       17.2166769407
  C         3.3863923879        1.2754901882       18.7059358106
  H        13.7063745646        2.1650084958       20.1077485295
  H        14.4690468984        1.0433638473       20.8560838894
  C        14.1144069161        2.6289396968       22.2056275172
  S        10.2166547525        9.9417618872       17.3389079362
  N        10.5481039355        9.3659148796       15.9209164607
  C        10.5218086663        7.2221971676       14.7649290729
  H        10.7321138845        5.0711059339       14.0577705706
  C         4.3344731078        0.7358102880       36.1811942021
  N         4.6097249021       -0.5774870350       36.3277577062
  O         5.1144933806       -2.4517138785       35.1540519030
  H         2.4535828742        1.5999638204       19.1427165908
  H         3.8974569998        0.8483642889       19.5925945364
  C         3.2225577950        0.1642602273       17.7450798204
  H        13.6731653354        3.6093298840       22.0950984488
  H        13.6319466733        2.3173044202       23.1429722563
  C        15.5763992025        2.8687842565       22.2571966964
  C        10.6959569739        7.9024588524       13.5263124761
  S         3.9887612290        1.5455635785       37.7080669718
  C         4.5856779928       -1.3119804529       37.5653667001
  H         2.4365807664        0.4547652660       17.0696936629
  H         4.0315385687       -0.1529486213       17.1456259221
  C         2.6560826875       -1.1921508102       18.3522785732
  H        15.8332131268        3.7985982733       22.7727072399
  H        15.9689573943        2.9562838392       21.2352259739
  C        16.2957537003        1.7297145304       22.9435707067
  H        10.1529764553        8.8596819828       13.5105580092
  C        11.3478434651        7.5938144578       12.3894403516
  H         3.8275527581       -0.9930003815       38.2766854207
  H         4.4819127087       -2.3773686408       37.4215329400
  C         5.9950446166       -1.3271273789       38.2749652150
  H         1.6401997896       -1.4102274693       18.0252973810
  H         2.6232512470       -1.1097248387       19.4493425074
  C         3.4253247581       -2.4081377735       17.9153918177
  H        16.0035027060        1.6835843791       23.9994218112
  H        16.1372306578        0.7974801519       22.4712376041
  C        17.8391130412        1.9901917953       22.9087285514
  S        11.9629161752        6.0534647114       11.8507436266
  C        11.4360309079        8.6550208049       11.3766001096
  H         6.7704548547       -1.2393212114       37.5601072484
  H         6.0685081455       -0.4497621402       38.9261923284
  H         6.2805224540       -2.1752792476       38.8971943035
  H         3.8743799513       -2.8196799361       18.7852262145
  H         4.1810586315       -2.2753511852       17.1287617896
  H         2.6889918685       -3.1379547048       17.5194600536
  H        18.2271347637        3.0344930754       22.6697960151
  H        18.0611502640        1.2331708872       22.1023798729
  H        18.2597331715        1.6435080097       23.7815995968
  C        12.3791843949        6.9319818422       10.3380527830
  N        12.1688483388        8.2166975862       10.3476415614
  O        11.1401056277        9.8395060324       11.5822670192
  S        12.9659293931        6.3055476977        8.8261577187
  C        12.2099418269        9.1471347704        9.2019589052
  H        12.4938779700       10.1729223266        9.4520658663
  H        12.9798342690        8.8827390186        8.5327256461
  C        10.9331241788        9.1718471139        8.3753174163
  H        10.6500602804        8.1854434919        8.1660492869
  H        10.1716850951        9.7088753334        8.9160330638
  H        11.0363001156        9.5665989232        7.3524735147
  H        -3.7588948559       12.6370704479       16.5647259498
  C        -2.7023123998       12.9373222300       16.5385935707
  H        -2.1149507688       12.0975310682       16.9534226606
  C        -2.3893711991       14.0865548933       17.5846415354
  C        -2.3967139711       13.3638362195       15.0595113326
  C        -3.0162003035       13.8365099246       18.9838469752
  H        -1.3843566098       14.4066410209       17.6372844029
  H        -2.9119352405       14.9584552423       17.2310669644
  H        -1.5260703507       14.0730443923       15.0179857066
  H        -2.2018775075       12.4215651120       14.4944487447
  H        -3.3632974646       13.6995531531       14.6524233417
  C        -2.1030969648       12.9358277736       19.8228690778
  H        -3.9791855565       13.3302442404       18.9617118476
  H        -3.3136768651       14.7765531456       19.4615026929
  C        -2.5242022092       12.9836436275       21.3654566676
  H        -2.3958824704       11.9900339133       19.5198271312
  H        -1.0106323541       13.0664940102       19.6467350073
  C        -1.3753674436       12.4092599974       22.1901755507
  H        -3.3582610120       12.4312449538       21.5837730596
  H        -2.7187695397       14.0608859998       21.5229423141
  C        -0.2568089351       13.3757142576       22.5669337585
  H        -1.7305350767       12.0653552266       23.1600483185
  H        -0.9792906049       11.5528985484       21.7682166739
  C         0.9950720170       12.7763682207       23.2552635738
  H         0.1211255966       14.0265212523       21.7231627186
  H        -0.6936897555       14.1012391248       23.2788447711
  C         1.4385730398       11.4128951112       22.5931716962
  C         0.6555449349       12.0368844343       24.4791030775
  C         2.1304722330       13.6904495182       23.5791003034
  C         1.2930824282       10.3058280008       23.3679391701
  C         1.9017902128       11.0947778304       21.3309644762
  C         0.7229581638       10.6648075397       24.6005520888
  C         0.3231613370       12.6807071536       25.6790463183
  H         2.3992389642       14.0592551970       22.5862716726
  H         1.8667218908       14.6160167459       24.1352672651
  C         3.3953317361       12.9558670609       24.1966726216
  S         1.7784657696        8.8181493773       22.5474897744
  C         2.2053939884        9.7315618684       21.1419274401
  H         2.0188115668       11.9238330484       20.6876357151
  C         0.2823938158       10.0711676222       25.7903298351
  H         0.0487987757       13.7268938806       25.5795461530
  C        -0.0162250705       12.0609985931       26.8592805783
  H         3.7547211843       12.1857451932       23.5600873750
  H         3.1067265839       12.4317070990       25.0846469501
  C         4.6233010800       13.8905943012       24.4590651322
  C         2.6816538494        8.9657975919       19.9516522962
  C        -0.0621157116       10.7216403155       26.9399182393
  H         0.4265128545        9.0367051648       25.9721718056
  C        -0.4227114939       12.4309235052       28.1203401566
  H         5.1925592669       13.2298921427       25.0790623418
  H         4.4542212760       14.6888466780       25.1305358040
  C         5.3919085274       14.4260356433       23.2500296045
  C         2.7260301316        7.5760641981       19.6549411987
  C         3.1135344071        9.8556719721       18.8420172486
  C        -0.4179063941        9.9812381137       28.1481941012
  C        -0.7609292964       11.3548233734       28.8785137292
  S        -0.5029673833       13.9578680589       28.9066607736
  H         6.0454923122       15.2652991583       23.5316831479
  H         4.6788363572       14.7552616995       22.5009129640
  C         6.2215085681       13.2807260981       22.6276118922
  N         2.3993657310        6.6271945478       20.6052923521
  C         3.0655726291        7.1245847046       18.4442567064
  C         3.5176612170        9.3535407756       17.5725553359
  H         3.0878894055       10.9011907398       18.9117101185
  C         0.7362528559        9.1645015576       28.7533504989
  C        -1.7435774884        9.1239392879       28.0404552574
  C        -1.0878533067       11.7454811016       30.1798655080
  C        -1.0868287968       13.1363967364       30.3353504577
  H         6.7518119827       12.8458075619       23.4407134480
  H         5.5883996635       12.4586537531       22.2663231420
  C         7.1820945524       13.7102793726       21.5417339632
  S         2.4581901126        5.1790678230       19.9393082041
  N         2.8114910566        5.7543897499       18.4015703443
  C         3.3643707542        7.9221327640       17.3194484166
  H         3.8258370065       10.0212533300       16.8007570675
  H         1.1708496637        8.4144788395       28.0304672274
  H         0.3893083672        8.5823564668       29.6684658052
  C         1.9220122163        9.9970638134       29.2237237526
  H        -1.5045852759        8.3491708677       27.2592579447
  H        -1.8672763520        8.6757731723       28.9936915433
  C        -2.9712021371        9.9533420383       27.7806019482
  H        -1.4076695167       10.9462930444       30.8366786464
  C        -1.3492088827       13.8031540068       31.6727110361
  H         8.0341978753       13.1064437498       21.5340302203
  H         7.6380323172       14.6690927023       21.6156214500
  C         6.5469825960       13.5340220057       20.1131701166
  C         3.4221627629        7.2250818495       16.0587116801
  H         2.2710725668       10.5344186681       28.3748751997
  H         1.7095846556       10.6885725617       29.9932039406
  C         3.0350321496        9.0471436441       29.6339949602
  H        -2.7266638032       10.5299753188       26.8342146959
  H        -3.1195415515       10.7742870497       28.4680975738
  C        -4.2276210418        9.1570684330       27.3686381890
  C        -1.3907516322       15.1988801962       31.9128780216
  C        -1.5906476505       12.8600263285       32.7970196992
  H         6.1940512008       12.4615399443       20.0085535783
  H         5.6831548383       14.1786983029       20.0682068867
  C         7.4802142964       13.9371243052       18.9850362134
  H         3.2080521632        6.1630704698       16.0037442900
  C         3.7359552003        7.6146153494       14.7958679812
  H         3.4761566679        8.5958322049       28.8047307789
  H         2.5562089755        8.2547367000       30.2440375662
  C         4.1358456119        9.7353581429       30.3491429353
  H        -3.9361081626        8.4403007742       26.6651341844
  H        -4.6870543843        8.5510138966       28.1856142398
  C        -5.2340030057       10.1003885453       26.7602819385
  N        -1.0522431925       16.1507242432       30.9583399499
  C        -1.6707720441       15.7487534804       33.0893226517
  C        -1.8227658961       13.4246797749       34.0789337954
  H        -1.3723466141       11.8068298796       32.7560271021
  H         6.9734755329       14.5296961530       18.2446789323
  H         8.2770461235       14.5284960786       19.4336393035
  H         7.9620295218       13.1038466140       18.4812034482
  S         4.0329730405        9.2147410284       14.2230763627
  C         3.8403872352        6.5694166232       13.7226820547
  H         4.4106222489       10.6680565347       29.8490432281
  H         3.6542679842       10.0955718285       31.2015510297
  C         5.3565791579        8.8325174770       30.5866040073
  H        -4.8411229529       10.6184540291       25.8519435597
  H        -5.3191615940       10.9069770919       27.4629386516
  C        -6.6871178136        9.6025030286       26.6494796573
  S        -1.1037524144       17.6121221282       31.5712481022
  N        -1.7389992358       17.1737331498       33.0079295001
  C        -1.9729120931       14.9421778813       34.2553561379
  H        -1.8786200150       12.8090574897       34.8869310564
  C         4.2918622596        8.5120422667       12.6594227775
  N         4.1621391300        7.2150280176       12.5654260304
  O         3.5492777106        5.3826595398       13.8503680425
  H         6.0854806697        9.4357527705       31.1552918426
  H         5.8057292114        8.6143821436       29.7269490133
  C         5.1214499636        7.5612927575       31.4506899553
  H        -6.6024297886        8.5481390546       26.1834629488
  H        -7.1322167717        9.3890176547       27.5886118701
  C        -7.5541557505       10.5455353240       25.8473486530
  C        -2.2630385994       15.6676368117       35.4090195206
  S         4.7494536269        9.4692222962       11.2282503289
  C         4.2888113894        6.4592941641       11.3609053710
  H         4.7778137516        7.8777019464       32.4355513033
  H         4.3255695210        6.9131363747       31.0930344009
  C         6.4027191545        6.7470975321       31.7836980243
  H        -6.9518034167       10.8674865879       24.9336349958
  H        -7.7797896987       11.4652852915       26.4452397253
  C        -8.8591154653        9.9170344519       25.3035718070
  H        -1.9562104137       16.6790097819       35.3937950373
  C        -2.8456240888       15.2830506493       36.5846566352
  H         5.0699132050        6.8464241936       10.7791441681
  H         4.4472578057        5.4742660368       11.7066494170
  C         2.9854848717        6.6934460676       10.5664507727
  H         6.1591200847        5.7819970466       32.0951861073
  H         6.9571728403        7.2759256742       32.4802598912
  C         7.3667367286        6.5348849293       30.6842252548
  H        -9.2220041427       10.4856184785       24.5088571758
  H        -8.6689812974        8.9116488575       24.9438567333
  C        -9.8925115200        9.9631374536       26.3543637653
  S        -3.6014193188       13.8051264301       36.9256423934
  C        -2.8634933840       16.2661371386       37.7352556615
  H         3.0431952151        7.3494751397        9.7509851491
  H         2.5807235052        5.7928727025       10.1643146083
  H         2.2276107404        7.0739654644       11.2397249481
  H         6.7890981016        6.6857911186       29.7487397512
  H         7.9319887188        5.6064136479       30.7081045260
  H         8.1282465073        7.3162040795       30.6242741011
  H       -10.8184781180        9.5193318020       25.9491254785
  H        -9.9137548017       11.0301066386       26.6831289069
  H        -9.6442975473        9.3350087802       27.2041610490
  C        -3.8237020193       14.4087426021       38.5684451893
  N        -3.4965900660       15.6910177298       38.7448714050
  O        -2.5804931280       17.4255031766       37.6365872491
  S        -4.4686083563       13.6079666179       39.9659152238
  C        -3.7209325418       16.3658548494       40.0308068809
  H        -3.9214677840       17.4496615205       39.8678361531
  H        -4.6349625051       16.0806723402       40.5136956546
  C        -2.4926665056       16.2476112900       40.9026899570
  H        -2.1230773987       15.2513310036       40.6800703730
  H        -1.6194805694       16.8011711718       40.5097699752
  H        -2.5809606783       16.3891843824       41.9790485960
