352
 i =    32500, time =    32500.000, E =        25.2330656877
  H        12.4484250668        5.2432746643       32.4016314089
  C        11.3828654335        5.3802493668       32.4150254619
  H        10.8610041055        4.4623418027       31.9970900751
  C        10.8945733021        6.5472239350       31.6221746073
  C        11.0092019476        5.5350411288       33.8833910733
  C        11.2151786466        6.5984316621       30.1464824640
  H         9.8415338812        6.5812975852       31.8079764174
  H        11.3786197308        7.4441241526       32.0165894581
  H         9.9362043439        5.6058438729       34.1705705867
  H        11.5502334128        4.6406987447       34.2916981768
  H        11.5849795317        6.3625730946       34.2456421138
  C        10.2900277618        5.7899683818       29.2400352778
  H        12.2332927546        6.3062102118       29.8321848180
  H        11.0864917715        7.6429487058       29.8332291300
  C        10.7625083066        5.7887636890       27.7786565749
  H        10.0364617335        4.7615490051       29.5810726265
  H         9.2953138705        6.2850132258       29.2144897167
  C         9.6536884880        5.2242177168       26.8416390047
  H        11.7161566948        5.2225490496       27.6766021099
  H        11.0527437068        6.8223747844       27.4837756877
  C         8.5369382964        6.2206040350       26.4314571009
  H        10.1497748438        4.9874429808       25.9040154327
  H         9.2768111739        4.3093057005       27.2834127827
  C         7.4711539814        5.5530338668       25.4923515844
  H         8.0733706543        6.4938940068       27.3498663818
  H         8.9266764009        7.1492628561       26.0939030151
  C         7.1467344090        4.1400909795       26.1184297814
  C         7.9575655577        4.8258810474       24.1922304567
  C         6.2603086122        6.3421927538       25.1906595124
  C         7.4247895629        3.0694162437       25.2808911159
  C         6.5008484921        3.6725301087       27.3131885179
  C         7.9339365001        3.4951810120       24.0682661603
  C         8.3943454370        5.5288069370       23.0745567024
  H         6.4704707223        7.1486847220       24.5186716731
  H         5.9177377096        6.7341471526       26.1390247139
  C         5.0292009480        5.5693746688       24.7104219250
  S         7.1271516016        1.5528520885       26.0091673801
  C         6.5200167990        2.3263114246       27.4606071792
  H         6.1538790096        4.3857004130       28.1238422434
  C         8.2329620000        2.8609015579       22.9349880964
  H         8.3948682573        6.6147387757       23.1045368260
  C         8.7039110089        4.8642329931       21.9177155042
  H         5.3746336154        5.1582129232       23.7866882846
  H         4.8825104745        4.6049210967       25.2814008928
  C         3.7354901136        6.3557357836       24.5639371374
  C         6.0283033136        1.7125834648       28.7566561943
  C         8.5514400538        3.5442734169       21.7424660647
  H         8.2010731031        1.7792750381       22.8147402897
  C         9.1670241874        5.2507953080       20.7383197178
  H         3.0261051492        5.7911170726       23.8339643197
  H         3.9348431532        7.2142061600       23.9281679136
  C         3.0693168245        6.6302305016       25.9406749691
  C         5.9985702201        0.3017783862       28.9456004981
  C         5.5776252615        2.5051264975       29.9532148275
  C         9.0011941948        2.8441597686       20.5548777940
  C         9.3043329729        4.1497806947       19.8707803731
  S         9.5915346182        6.7821333273       19.9544792810
  H         2.1562850317        7.1695332174       25.9198626952
  H         3.7311672420        7.2976275869       26.4886179806
  C         2.8677787952        5.3706234606       26.8226244302
  N         6.1349464597       -0.6006383646       27.8791428519
  C         5.5905973158       -0.3179973465       30.0519466092
  C         5.0865967861        1.8367804100       31.0644782712
  H         5.6267837646        3.5627891603       29.9226237078
  C         7.8637454370        2.0990586018       19.7759286857
  C        10.2512399929        1.9174095987       20.7603574469
  C         9.9208526649        4.5456964897       18.6951512222
  C         9.9749101142        5.9114598059       18.5457117955
  H         2.4723838760        4.5195402042       26.2193706820
  H         3.7545379504        4.8866838750       27.2099067593
  C         1.8246805205        5.5509478304       27.9358727215
  S         6.0826409811       -2.0836939613       28.5112707173
  N         5.7517145812       -1.6769281830       30.0146903103
  C         5.1044300918        0.3533078147       31.1731938193
  H         4.6210798212        2.4099047826       31.8144102901
  H         7.3168738002        1.4569271157       20.4888762251
  H         8.2451492218        1.4464857295       18.9194254523
  C         6.6555817877        2.8931207142       19.2622013740
  H        10.3867825579        1.3822347875       19.8399839590
  H        10.0639133656        1.1236053711       21.4841977371
  C        11.4751050520        2.7215393705       21.1369512933
  H        10.1420775935        3.6795790073       18.0407315264
  C        10.3036842009        6.5288492684       17.2280033432
  H         1.4757434882        4.5775186144       28.1360792298
  H         1.0372270979        6.0285913348       27.4396723966
  C         2.3756660405        6.3912193194       29.1279739321
  C         4.7628642936       -0.3659226378       32.3956387711
  H         6.9535431947        3.5976002559       18.4613007420
  H         6.2055973361        3.5205823815       20.1265257030
  C         5.3976753948        2.1041392017       18.6955647962
  H        11.3002355793        3.4681104912       21.9357272934
  H        11.7782578582        3.2381495626       20.2567176952
  C        12.7371044933        1.8595436510       21.3773384173
  C        10.3541235532        7.9689677702       17.0080531062
  C        10.5942476144        5.6426106848       16.0538947423
  H         3.0692109177        7.2329582952       28.9405695121
  H         1.4502731759        6.7330045575       29.6624688758
  C         3.0693290877        5.3973066289       30.0779185320
  H         4.8200952837       -1.3982280563       32.3331706338
  C         4.4624761419        0.0324463690       33.6886253146
  H         5.0176734030        1.5565030251       19.5436329165
  H         5.6900056292        1.2810009597       18.0508857754
  C         4.3566740204        3.0370493195       18.0863944294
  H        12.8096641491        1.3638005740       22.3597285505
  H        12.7165539591        1.1663040260       20.6463840158
  C        14.0384530982        2.5846207463       21.1345035576
  N        10.2100136299        8.8606827880       18.0380142520
  C        10.7897126622        8.5396062985       15.7875381254
  C        10.8804160930        6.2585995337       14.8148849176
  H        10.5848089887        4.5875448194       16.1125616564
  H         2.4654383602        4.7595589435       30.7419707937
  H         3.9838338359        4.8887083286       29.7676998904
  H         3.4577910529        6.1638444613       30.7939460380
  S         4.1966271205        1.6032510312       34.2707386123
  C         4.3826457461       -1.0283268798       34.6743891510
  H         4.0137667578        3.5387265764       19.0229108143
  H         4.8548801496        3.8327000341       17.4395649232
  C         3.1688978991        2.2111040501       17.5594841187
  H        13.9895636887        3.3401234509       20.3321748890
  H        14.5979008180        1.7575610086       20.7324397626
  C        14.6120883730        3.2322535175       22.4783438187
  S        10.3406638847       10.3537215610       17.4068284208
  N        10.9333187116        9.9260072831       15.9620702741
  C        11.0820306785        7.7405713855       14.6677907069
  H        10.9688169108        5.5805541667       13.9290740737
  C         4.0949530778        0.8840519973       35.8279580509
  N         3.9948751518       -0.4931112060       35.8977466735
  O         4.4544504945       -2.2732727600       34.4377096757
  H         2.6039937202        2.9336599573       16.9612125162
  H         2.6695909403        1.9757600870       18.4183314529
  C         3.4202012793        0.9251689646       16.7291825300
  H        15.2765368749        3.9562827127       22.0951474460
  H        13.8985562237        3.8154145053       22.9823064724
  C        15.4019562793        2.1940183187       23.3592358054
  C        11.3697550100        8.4178239932       13.4576736019
  S         3.6363082441        1.7646507995       37.2915774528
  C         4.0117529647       -1.2894536407       37.1490780562
  H         2.8015005385        0.8637987945       15.8510617021
  H         4.4340782702        0.9302239780       16.2766173732
  C         3.4111484537       -0.3496629057       17.6097832845
  H        15.3145910956        1.2249876913       22.8802886911
  H        14.8438032522        2.0627511118       24.2390050830
  C        16.8670063002        2.6038680092       23.6982912241
  H        11.3569056058        9.5000366443       13.5158866146
  C        12.0031414697        7.9587931740       12.3018881469
  H         3.2067565738       -1.0867108278       37.8113362710
  H         3.8128741601       -2.3120243593       36.8945532475
  C         5.4460102778       -1.1982352270       37.8909928758
  H         4.0871317430       -0.3363575509       18.4226609036
  H         3.7025635722       -1.1690783436       17.0131402174
  C         1.9941615845       -0.6953996791       18.2610125769
  H        16.8915976679        3.6170454299       24.0962533337
  H        17.3113575113        1.9467368231       24.4601701826
  C        17.8104579944        2.4601925310       22.5080818120
  S        12.6599051242        6.4572466859       11.9368644264
  C        12.0171651937        8.9188076005       11.1606387960
  H         6.1335060613       -1.0274864736       37.1307508795
  H         5.5969868938       -0.3545568695       38.5194678331
  H         5.6582806172       -2.1327183284       38.4750925668
  H         1.6692948603       -1.7118944825       18.2692390386
  H         1.1873161188       -0.1540935043       17.7159752889
  H         2.0604983112       -0.2480702825       19.2828365573
  H        17.6462562816        1.5547216911       22.0404353264
  H        18.8545220299        2.6262773283       22.7174630559
  H        17.4776860203        3.2811153593       21.8143403763
  C        13.0558725074        7.0947521051       10.3171779046
  N        12.6523736236        8.3620234473       10.1011510177
  O        11.5928035157       10.0852587110       11.2061149637
  S        13.7540542992        6.0764968660        9.1112255930
  C        12.9967004161        9.0789652932        8.8410730020
  H        13.0250527632       10.1276761981        8.9315919830
  H        13.9911947237        8.8615920267        8.4573528743
  C        11.9402979522        8.9517447549        7.7385166880
  H        11.0163975063        9.2422498527        8.2016144654
  H        12.1632796985        9.5949747968        6.9144128353
  H        11.7806159656        7.9246318169        7.3676341889
  H        -3.2153537199       15.0056279388       15.9743450675
  C        -2.9452271056       13.9007443586       16.1544030821
  H        -3.7746220375       13.4410385330       16.6073721698
  C        -1.7117578165       13.5129748845       16.9887195142
  C        -2.7847856323       13.3004676441       14.7189659825
  C        -1.6998889481       14.0046438301       18.4338152711
  H        -1.6426356481       12.4583357287       17.1250616816
  H        -0.7831582760       13.7870693365       16.4091934348
  H        -2.1276823891       13.8788854437       14.0877862449
  H        -2.4237902084       12.2832310843       14.6721128371
  H        -3.7960259202       13.1772022826       14.3489083717
  C        -2.1915055477       12.9136172280       19.4679751754
  H        -2.3393810775       14.9094661765       18.4312803816
  H        -0.7497349786       14.3215721263       18.5782736609
  C        -2.2763585731       13.5231860204       20.9306401474
  H        -3.0704167907       12.4327930241       19.1458638655
  H        -1.5212304093       12.0876552467       19.5138377843
  C        -1.2069251608       12.9266148912       21.8916522024
  H        -3.2280623996       13.1478182919       21.2443509793
  H        -2.3453484507       14.6694993201       20.9269101367
  C        -0.0101019488       13.8730938036       22.2372815553
  H        -1.6999385902       12.5365029483       22.7809970314
  H        -0.8952243036       12.0434966347       21.3727650210
  C         1.1529657396       13.1688827583       22.9530451415
  H         0.3418702888       14.2386512369       21.2434794820
  H        -0.2862531762       14.7206401721       22.8696038883
  C         1.4769338716       11.8458371880       22.2132306360
  C         0.6766220376       12.4018903342       24.1113060210
  C         2.3440087291       14.0436183307       23.2375552322
  C         1.1797380953       10.7265590872       22.9679776706
  C         1.9450119717       11.5889367728       20.9442924282
  C         0.7255376107       11.0091572243       24.2350260905
  C         0.0698294906       13.0191740274       25.2031848929
  H         2.6288644495       14.4677968960       22.3020299319
  H         2.1616997550       14.8139606769       23.9178075626
  C         3.5988861338       13.2063263955       23.6984416618
  S         1.6950925297        9.2544712164       22.1711593665
  C         2.1075563450       10.2283880391       20.8209743475
  H         2.1516361976       12.4425238387       20.3185051948
  C         0.3411070654       10.4009067496       25.4069669819
  H        -0.0422947906       14.1084768066       25.2035367533
  C        -0.2374773580       12.4272138037       26.3710036131
  H         3.8349797038       12.4548857638       22.8966245068
  H         3.3174072467       12.6812779828       24.6654813815
  C         4.8281644686       13.9915128995       24.0604676600
  C         2.6454822223        9.4199933408       19.6282617701
  C        -0.1661418648       11.0726047620       26.5201490066
  H         0.3665661327        9.3124211320       25.4252289989
  C        -0.6522360687       12.8148689052       27.6394200211
  H         5.4008786344       13.3026895980       24.6700096555
  H         4.4989499927       14.7603758763       24.7893974405
  C         5.5184921107       14.6262472423       22.8237467986
  C         2.6181537307        8.0661544867       19.3221385000
  C         3.1266059726       10.2812875061       18.5334996970
  C        -0.3995670641       10.4496361654       27.8087105595
  C        -0.7868265703       11.7580919352       28.4981999217
  S        -0.9320947296       14.3443340437       28.3895073211
  H         5.9909379488       15.5645409916       23.1499502726
  H         4.8748378037       14.9544946707       21.9920309528
  C         6.5024465391       13.5828114731       22.2708603988
  N         2.4304466899        7.0764899303       20.2207205858
  C         3.1239262853        7.5397713477       18.1371036383
  C         3.5374316217        9.8322549305       17.3243970921
  H         3.0265604150       11.3693629154       18.7155856130
  C         0.8962582539        9.7763247807       28.3777135531
  C        -1.6255942812        9.5144659353       27.9863732599
  C        -1.0555733664       12.2078068356       29.8140491644
  C        -1.1462196612       13.5336273623       29.9172456534
  H         7.2126560560       13.5604390342       22.9890734077
  H         6.1082517421       12.5821413237       22.1547929688
  C         7.2714312396       14.0704489535       21.0932338076
  S         2.3522971113        5.5650876685       19.4461925715
  N         3.0260486506        6.0932054416       18.0677480663
  C         3.5352362400        8.3435584202       17.0362549294
  H         3.8454215683       10.5938955045       16.6193193295
  H         1.3484761867        9.0647014455       27.7170648474
  H         0.6362629990        9.2142516687       29.2728046909
  C         2.0489944531       10.7497362787       28.7779638183
  H        -1.3806010833        8.6899630488       27.2992061569
  H        -1.5751115524        8.9512481666       28.8923358152
  C        -2.9726008241       10.1261301342       27.6266646677
  H        -1.2401571285       11.4526043276       30.6004421761
  C        -1.5037557263       14.3407627358       31.1522327818
  H         8.0833991786       13.4092091638       20.8678743722
  H         7.6505510441       15.0342926573       21.5199469173
  C         6.4632353134       14.4118216332       19.8033132053
  C         3.7911537245        7.7419942686       15.8025859876
  H         2.5351107314       11.2572593779       27.9244243730
  H         1.7041848701       11.4609689266       29.4902028909
  C         3.2284956867        9.9275663967       29.2663109799
  H        -2.8580473196       10.7281770572       26.7163410725
  H        -3.2871481794       10.7487025413       28.3824535599
  C        -4.0181369903        9.0502653025       27.3075348829
  C        -1.5292709784       15.7647944979       31.2942626658
  C        -1.7871702909       13.5451944767       32.3716323109
  H         6.0541269979       15.3884982224       19.9385916208
  H         7.1387408200       14.5989186178       19.0091221936
  C         5.2870455642       13.4414752135       19.5423868856
  H         3.6134285118        6.7064492731       15.7369460597
  C         4.2257835192        8.1765682790       14.5504267782
  H         3.6986718084        9.2981244015       28.4699384438
  H         2.8828292281        9.2908353332       30.0347717602
  C         4.2394511433       10.8297568376       29.9742716613
  H        -3.6494171748        8.4414933151       26.4129825158
  H        -4.1163420846        8.4054760443       28.1510051612
  C        -5.4522543991        9.4716891503       26.8486435685
  N        -1.3196788571       16.7000468564       30.2397332549
  C        -1.8589705128       16.4133333084       32.4967463022
  C        -2.1554155972       14.2014403993       33.5196049176
  H        -1.7353903581       12.4611657067       32.3976771757
  H         5.4226341724       12.5708533928       20.1746022470
  H         4.3841067798       13.9154847394       19.7960170882
  H         5.1781014499       13.2493136115       18.5071285031
  S         4.4537199065        9.8006620008       14.2311773295
  C         4.2683491465        7.2024684796       13.4023490986
  H         4.2573576882       11.7770036287       29.4711769057
  H         3.9663190565       10.9621735765       30.9667637567
  C         5.7226776540       10.2624847500       30.0198161951
  H        -5.8748492337       10.2242440704       27.5044161340
  H        -6.0649738028        8.5888724733       27.0056068101
  C        -5.5763262301        9.8181262638       25.3828042586
  S        -1.5534069220       18.2018474102       30.8799970441
  N        -1.9943325830       17.7998026722       32.3718207407
  C        -2.2447496960       15.6570878322       33.6465135201
  H        -2.4181176543       13.5751886189       34.3136437853
  C         4.7712450067        9.1904602219       12.6031184968
  N         4.6986593383        7.8470538961       12.3357191542
  O         4.0945253542        5.9896346045       13.6606526859
  H         6.1923825362       11.1002693377       30.5568445460
  H         6.2745047367       10.1957601946       29.1070003157
  C         5.9064657500        8.9576798753       30.7538675106
  H        -4.6060280166       10.2054695108       25.0999956592
  H        -5.7563015040        8.9106780705       24.8133341659
  C        -6.6931774849       10.8615789996       25.1987630587
  C        -2.7014299229       16.4547078770       34.7592564121
  S         5.0461492098       10.3048761893       11.2424723502
  C         4.8538636317        7.2224555492       11.0392697619
  H         6.6350980652        9.0844875122       31.5055852506
  H         4.9649700465        8.7745491000       31.2936057897
  C         6.2838434584        7.8397111186       29.8092295271
  H        -6.4265286874       11.3336520254       24.2097194364
  H        -6.4715044939       11.5640398556       25.9586989253
  C        -8.1830659342       10.4164612962       25.0804804888
  H        -2.2798767968       17.4502295490       34.8979489514
  C        -3.2251457274       15.9787241378       35.9976146849
  H         5.6405553100        7.6376839830       10.4633827602
  H         5.2283691778        6.1519946225       11.1395689403
  C         3.4726348414        7.0493916020       10.3449752492
  H         7.0204285487        7.9967328984       29.0520503302
  H         5.3341029756        7.5745170691       29.4070686966
  C         6.8950815665        6.6635913073       30.5859780208
  H        -8.5168698589       10.9224606467       24.1016637153
  H        -8.2739280537        9.3595764423       24.8958748931
  C        -9.0989016187       10.8540920801       26.2380488980
  S        -3.7400488916       14.3493309161       36.3851714391
  C        -3.4126603897       16.9088138004       37.1140259139
  H         2.6296756030        7.2834262591       10.9993017608
  H         3.4576159097        7.8925619769        9.6860474851
  H         3.5011828028        6.0733593885        9.7921179425
  H         7.1501110716        6.0184768243       29.7866132549
  H         6.1433055347        6.1008445687       31.1484715863
  H         7.7462354414        7.1089739297       31.0915280487
  H       -10.0657198376       10.3232309451       26.1296821233
  H        -9.1269599140       11.9225526433       26.2491101753
  H        -8.6590412618       10.6378935346       27.2355430613
  C        -4.2568757028       14.9662741816       37.9125982691
  N        -4.0611611746       16.2725108267       38.0686022275
  O        -3.2065889547       18.1424751909       37.0376592788
  S        -4.9271471695       13.9837630914       39.2878986094
  C        -4.3613568552       16.9794418693       39.3010075800
  H        -4.4314355572       18.0528045954       39.2082105539
  H        -5.2952935063       16.6656689693       39.7080586460
  C        -3.1574010779       17.1155360540       40.3015107392
  H        -2.9807169147       18.1171089810       40.7278528105
  H        -3.3561237364       16.4706151064       41.1658231607
  H        -2.2614296701       16.7695071294       39.9189388698
