352
 i =    13400, time =    13400.000, E =        25.3180451285
  H        11.7467237337        6.9943754882       32.5176321954
  C        11.6579991643        5.9355547291       32.4989505988
  H        12.6441624239        5.4392843102       32.3599438231
  C        10.6881763044        5.6678724125       31.3182335742
  C        11.2122774442        5.5090071941       33.9012999045
  C        11.2056423168        5.9492031436       29.9728162289
  H        10.3930271278        4.5801424847       31.3637985792
  H         9.8014035287        6.2684064986       31.5305692923
  H        11.9811493534        5.8330771014       34.6602610787
  H        10.2302640814        5.9277351501       34.1393359445
  H        11.1684159737        4.4203320645       33.9204433984
  C        10.1017795250        5.8883135632       28.9219199475
  H        11.9763616731        5.2700377227       29.6624598275
  H        11.6254167214        6.9430283470       29.9637105628
  C        10.6823312656        5.9608646922       27.4378472112
  H         9.5420260045        4.9816951127       28.9232755379
  H         9.4789595503        6.7354634850       29.0484630959
  C         9.6935708131        5.3482008737       26.4717436270
  H        11.6162178851        5.3789138653       27.2497872333
  H        10.8801769552        7.0125401568       27.1631090382
  C         8.3958700159        6.1071181613       26.2815879410
  H        10.2348596479        5.2871055376       25.5211840101
  H         9.5423307891        4.3175957030       26.7323669717
  C         7.1487852023        5.3339447048       25.7136826376
  H         7.9956808516        6.3879622405       27.2899416966
  H         8.6722087156        7.0144627593       25.7594309433
  C         6.8318930142        3.9815600250       26.4266998331
  C         7.5278030389        4.5850274884       24.4208043596
  C         5.8247779186        6.1715220220       25.5606317023
  C         7.0639384906        2.8728086044       25.6394858400
  C         6.3270028673        3.7185631608       27.7088511107
  C         7.5758515477        3.2304790140       24.4176339349
  C         8.0203634414        5.3122339465       23.3174140802
  H         5.9444896019        6.8879811432       24.7467810289
  H         5.8170703140        6.8254384027       26.4708662989
  C         4.6680915261        5.3831641886       25.0496259175
  S         6.6767773780        1.4187475159       26.5529188956
  C         6.2621015524        2.4028364423       27.9178896124
  H         6.1054855142        4.5520263692       28.3636475827
  C         7.9539928401        2.6302376398       23.2668443409
  H         8.1750430260        6.3421009718       23.4159176600
  C         8.4379179771        4.6793905744       22.2122273374
  H         4.9754959227        4.8745678608       24.1353954458
  H         4.3143627382        4.7153506283       25.8695970878
  C         3.3950375385        6.1762211053       24.7270354651
  C         5.8601851050        1.7498391172       29.1856246940
  C         8.4243883920        3.3693954534       22.1649538732
  H         7.8224373608        1.5282197845       23.1843841432
  C         8.7991498988        5.0427936741       20.9651568131
  H         2.8313658956        5.8060762761       23.8713841399
  H         3.6876921413        7.1022965715       24.3789072058
  C         2.5856396024        6.6519225977       25.9425213640
  C         5.8344317681        0.3755989167       29.4900411176
  C         5.5529271336        2.6258460861       30.3325427193
  C         8.7710608155        2.6185807436       20.9642007596
  C         8.9956483446        3.8791312434       20.2149211258
  S         9.3279658048        6.4758584741       20.2545589149
  H         1.8545991930        7.2909238641       25.3930092791
  H         3.3183006952        7.2508815319       26.5077731856
  C         1.8466573847        5.4630103245       26.5734305105
  N         6.1214711731       -0.6011253214       28.5320249349
  C         5.6835446878       -0.1083065433       30.7195625550
  C         5.3063141495        2.1478579045       31.6452363991
  H         5.5152324930        3.6714959137       30.2244310293
  C         7.5995342527        1.8120835740       20.3402544337
  C        10.0704105000        1.7461015409       21.2295176058
  C         9.3874659780        4.2486233251       18.9163844758
  C         9.5671975304        5.6154997381       18.7817631824
  H         0.9207227787        5.1366579991       26.0661908137
  H         2.4601392996        4.5115892963       26.6228539521
  C         1.4781274239        5.7653598318       28.0220113961
  S         6.1596878915       -2.0361228882       29.2856288048
  N         5.7679579403       -1.5243119161       30.7674824453
  C         5.3576598353        0.6766489615       31.8590472890
  H         5.1589732946        2.8688645465       32.4900867569
  H         7.2675033846        1.0435394777       21.0368781796
  H         8.0361225127        1.2541193713       19.5786087856
  C         6.4372190234        2.6145656985       19.7802681013
  H        10.3624196208        1.1350183794       20.3790015021
  H         9.8957925603        0.9799995911       21.9442436577
  C        11.2379104320        2.5725644379       21.6485555293
  H         9.4813867462        3.4502139281       18.2107757889
  C         9.9378731110        6.3492148205       17.4988067785
  H         0.8074145252        4.9319125413       28.2960650836
  H         1.0605162970        6.7723143083       28.2719867906
  C         2.7155203699        5.7881425907       28.8983146163
  C         5.2662707862        0.0558680918       33.1214643270
  H         6.7110702687        3.3879118501       19.0074491953
  H         6.0263649113        3.2612730870       20.5860428975
  C         5.3656999789        1.6891717195       19.2238383794
  H        11.1119118071        3.0996258299       22.5976127253
  H        11.3576331919        3.3260950228       20.8853717954
  C        12.5316069870        1.7062209172       21.7248211778
  C        10.0279655012        7.8089793622       17.3428648691
  C        10.0823171896        5.5846311497       16.2134625313
  H         3.4441496834        5.0536382544       28.5608609436
  H         3.1443366312        6.8096595593       28.8945983253
  C         2.3129443216        5.4768674201       30.3565673264
  H         5.4161630905       -0.9861922711       33.2076103898
  C         4.9423243654        0.5509038977       34.3354793727
  H         4.8657654538        1.1021728868       20.0797213911
  H         5.8558503151        0.8769946488       18.6173330444
  C         4.3702982342        2.4465818782       18.3629958014
  H        12.6322723038        1.2723053372       22.7257551809
  H        12.3968553283        0.9062493647       20.9651131132
  C        13.8383418182        2.4280639954       21.5459252617
  N         9.8784696711        8.7376757245       18.3566734289
  C        10.3481883108        8.4353293345       16.1377210771
  C        10.4428590783        6.2289869192       15.0591924725
  H         9.8953891062        4.5698032385       16.2528482082
  H         2.4572021727        6.4555801349       30.8866039200
  H         1.2742795713        5.1775158916       30.5193315099
  H         2.9721745939        4.7359220870       30.7848985873
  S         4.4736214877        2.1251506139       34.7603928179
  C         4.9839779973       -0.4441013895       35.4838600044
  H         4.2439649725        3.4827871098       18.7359012859
  H         4.7302051934        2.6331915226       17.3801181894
  C         3.0269959497        1.7589413744       18.1484137174
  H        13.5140662114        3.2156025693       20.8437929377
  H        14.6031980240        1.8937058913       20.9298415669
  C        14.4337305135        2.9151305309       22.9097926997
  S        10.0693506503       10.2637032746       17.8565667087
  N        10.4302427157        9.8604434217       16.2781378924
  C        10.5917575628        7.6799104810       14.9577279339
  H        10.5432030684        5.6567231045       14.1735431484
  C         4.2660700388        1.4628578422       36.4228261486
  N         4.4937212643        0.1284415075       36.5605884818
  O         5.0728805786       -1.6826297535       35.3555283320
  H         2.3723898182        2.5473488532       17.8088806250
  H         2.6124261236        1.4983984352       19.1078487947
  C         2.9253147219        0.7330971593       17.0154743471
  H        14.9476017924        3.8105090683       22.7857771186
  H        13.5466008239        3.1219349775       23.5400123760
  C        15.3930669487        1.8605259149       23.6384629968
  C        10.8740593069        8.4458264591       13.7748661115
  S         3.6859111736        2.3701676722       37.7849402284
  C         4.4521243856       -0.5863508022       37.8284370792
  H         2.1244280420        1.0258502102       16.3478790236
  H         3.9339435638        0.8101122599       16.4869615140
  C         2.6522491548       -0.6462215162       17.4930395312
  H        15.1980666882        0.8348315139       23.2428588410
  H        14.8650829457        1.8178879512       24.5819698558
  C        16.8792403336        2.0605794722       23.7507068261
  H        10.4832777916        9.4249191770       13.9568150002
  C        11.3206775331        8.1858751578       12.5350510730
  H         3.8038656364       -0.0037300946       38.4791603049
  H         4.0350062183       -1.6503602422       37.8001880073
  C         5.9126713965       -0.7784896673       38.4335939687
  H         3.5652133390       -1.2200989503       17.3497090298
  H         2.0483254727       -1.1281944579       16.7352764184
  C         2.0261592809       -0.9840510615       18.8257906343
  H        17.1097202404        3.0137640655       24.1100182645
  H        17.2802709572        1.3486500522       24.5078506652
  C        17.6645138071        2.0588853371       22.4663414129
  S        11.7857572545        6.6366855566       12.0311446986
  C        11.4293299535        9.2873241073       11.6124327190
  H         6.3861838656       -1.7023247310       38.4021345155
  H         6.6047776356       -0.1624474826       37.8850363278
  H         5.9498592022       -0.2945854296       39.4602803937
  H         1.1078433464       -0.3609784620       19.0358590061
  H         2.7373534372       -0.7517586786       19.6571292404
  H         1.8170625216       -2.0756228183       18.8790331217
  H        18.7215136992        2.1724062312       22.6525142933
  H        17.2946264758        2.8289993975       21.8592032892
  H        17.5956508366        1.0809894215       21.9666085373
  C        12.1678419883        7.4891333013       10.5106697684
  N        12.0004866686        8.8555397512       10.4843242327
  O        11.0108705391       10.4322554307       11.8449415633
  S        12.9707652628        6.6823442201        9.1969429158
  C        12.2021818169        9.6800094197        9.2563868905
  H        12.4489743042       10.7356176916        9.4992352037
  H        13.0245331050        9.3439533268        8.7448532302
  C        10.9363262488        9.6258566332        8.3827926925
  H        10.2115922848        9.0281806089        8.8777746005
  H        10.4676455749       10.6360201067        8.2622127451
  H        11.1103173966        9.1539388676        7.4464971532
  H        -3.1595987141       15.1365224497       16.3705996502
  C        -3.0274076604       14.0323223362       16.2138165162
  H        -3.9270339679       13.3293349227       16.2296143658
  C        -2.0927519038       13.7699241377       17.3375598422
  C        -2.3956614466       13.7122445624       14.9297956478
  C        -2.7713125163       13.7599698658       18.6723533950
  H        -1.5820339959       12.8432082878       17.0520283919
  H        -1.2372962091       14.4967088694       17.2880132733
  H        -2.0322811151       12.7476230876       14.5658338791
  H        -3.2485341082       13.9555182774       14.2864311093
  H        -1.6672128592       14.4666458496       14.8529662176
  C        -1.7098899208       13.6648029465       19.8368348867
  H        -3.4130695796       12.8807172762       18.7663605916
  H        -3.3410422024       14.6102627902       18.8811186639
  C        -2.2839555528       13.7771476431       21.2179704146
  H        -1.0535335602       12.8391256040       19.8741434736
  H        -1.1296389847       14.5373734110       19.7308787135
  C        -1.3609955280       13.0306867376       22.1573128079
  H        -3.3175412371       13.4298014314       21.2762116018
  H        -2.2797545717       14.8055841176       21.4755129644
  C        -0.2552414957       14.0432517574       22.5632873250
  H        -2.0180599771       12.7449116312       22.9868661504
  H        -1.0266504310       12.0860431146       21.7528834288
  C         0.9884249980       13.2892464484       23.2331719695
  H         0.1821520122       14.4622599040       21.6556577778
  H        -0.5733832622       14.8234322672       23.2002477368
  C         1.3718785571       11.9857007311       22.5510091775
  C         0.6234858055       12.6018330727       24.5040293159
  C         2.2569713457       14.2232408416       23.4469787910
  C         1.1823366593       10.8770928470       23.3496824859
  C         1.8894373509       11.6563203689       21.3193821246
  C         0.7848006595       11.2542901759       24.5895962571
  C         0.3227470047       13.2517980473       25.7073140487
  H         2.4780338337       14.7360015837       22.5915355191
  H         2.0806113557       15.0190916186       24.2283391682
  C         3.4985893810       13.4295222782       23.8275193754
  S         1.5176941897        9.3769593055       22.5663935230
  C         1.9849206720       10.3170854486       21.1788213294
  H         2.0906650741       12.4285361632       20.5715465741
  C         0.4859250568       10.6351881783       25.7722251173
  H         0.4025018408       14.3309470274       25.6781725046
  C         0.0245287110       12.6470157363       26.8363864260
  H         3.5751006475       12.5610692428       23.1463127512
  H         3.2200793187       13.0379370367       24.7960457410
  C         4.7948319408       14.2422957628       23.9618978610
  C         2.4120593675        9.6052328558       19.8898638852
  C         0.0455491605       11.3321886438       26.9030060701
  H         0.6821866362        9.5914817195       25.8558049816
  C        -0.3856780621       12.9837261552       28.1216306504
  H         5.4347685389       13.7428110181       24.6683599865
  H         4.5476469257       15.2364795391       24.4483103582
  C         5.5487089237       14.4166885534       22.7206734033
  C         2.4148433208        8.2353489352       19.6676762640
  C         2.7086425652       10.3971337544       18.7209894660
  C        -0.3353449683       10.5493291723       28.0986000278
  C        -0.5511459648       11.8356287374       28.9029362195
  S        -0.5620937089       14.4719068840       28.9645694193
  H         6.2289294196       15.2643847225       22.9001497617
  H         4.7994865114       14.8535255554       22.0704651818
  C         6.3507836738       13.1246501508       22.2115209992
  N         2.1712289707        7.1961993800       20.5838042746
  C         2.6837884019        7.6649500576       18.4004993591
  C         3.1202563587        9.9017278109       17.4982128474
  H         2.6145682415       11.4667123467       18.7899141893
  C         0.8640313753        9.7213342818       28.6928171850
  C        -1.6224277822        9.7758483210       27.9990025870
  C        -0.9571279090       12.2118357318       30.2485294688
  C        -1.0391194928       13.6384365023       30.4293148569
  H         7.0781365964       12.9857953423       22.8972588075
  H         5.7065037713       12.2692074747       22.0974269848
  C         7.0370409054       13.4386917321       20.9213706703
  S         1.9464257819        5.7975582422       19.7988934450
  N         2.4263730457        6.2768692807       18.3037640899
  C         3.0701094152        8.4142379261       17.2723423229
  H         3.3633399137       10.6037428488       16.7043566500
  H         1.3989605403        9.0409729928       27.9431437253
  H         0.4119975524        8.9685096750       29.4335687822
  C         2.0099302125       10.5756290031       29.3576291017
  H        -1.5032037756        9.0185170982       27.2735294598
  H        -1.7034090664        9.1762631967       28.9344032868
  C        -2.9302025885       10.5343795812       27.7465166803
  H        -1.1881165967       11.4473024456       30.9098188782
  C        -1.5635817745       14.2974708893       31.6404357520
  H         7.6427750678       12.5432402542       20.8092065343
  H         7.6895754648       14.2895149765       20.9643554093
  C         6.0758772979       13.6080304138       19.7657984255
  C         3.3475399393        7.7602814819       16.0034913631
  H         2.3820514106       11.3528538809       28.8352315376
  H         1.5468024954       11.1159209071       30.1491876409
  C         3.0582762303        9.6299233422       29.9605342800
  H        -2.8852559795       11.2763923656       26.8983263160
  H        -3.1414177790       11.1300597516       28.6672014706
  C        -4.1740351830        9.6389291997       27.5519029697
  C        -1.5377053153       15.6590975034       31.8553371669
  C        -1.7195365489       13.4827166119       32.9204848276
  H         5.6021846230       12.5680676481       19.5789412276
  H         5.3115594170       14.3276262605       19.9838900825
  C         6.8395552945       14.1649701674       18.6392404105
  H         3.2853626196        6.6848039444       15.9736694974
  C         3.6756740979        8.2222038280       14.7198410796
  H         3.3928117002        8.9246407563       29.2400541530
  H         2.5761279076        9.0040501242       30.7190861660
  C         4.1761748956       10.3815253837       30.5536555305
  H        -3.8998074475        9.1719172508       26.6790059161
  H        -4.1692325778        8.8842114888       28.3489967338
  C        -5.4785950684       10.4458230309       27.3521167593
  N        -1.2319296048       16.6550238236       30.9194253114
  C        -1.7182811013       16.3370294499       33.0468186581
  C        -1.9604078025       14.1175808172       34.1406768540
  H        -1.6751688285       12.4168804044       32.9042226760
  H         7.7054190714       13.4900679121       18.5043075750
  H         6.2165638962       14.1437878686       17.7368122224
  H         7.2326700866       15.1367798874       18.7966817470
  S         3.8689181344        9.8036967366       14.2170970840
  C         3.7524849177        7.1852836501       13.6951125750
  H         4.3594887205       11.2535181028       30.0018230104
  H         3.8375758671       10.6884474338       31.6029741462
  C         5.3894282139        9.5886796414       30.5284794988
  H        -5.2452029107       11.3946042491       26.8003851316
  H        -5.8812123168       10.7420953907       28.2551609258
  C        -6.5033244107        9.6237970307       26.5834353862
  S        -1.2255030936       18.1956099461       31.5151552396
  N        -1.6211771902       17.7646171733       33.0159897041
  C        -2.0720403181       15.6291705638       34.2001002508
  H        -1.9818517518       13.4645705944       35.0062625507
  C         4.2125107799        9.0525593859       12.6273727715
  N         4.1418406655        7.7469896299       12.5163984869
  O         3.4406162552        6.0224744887       13.8573195168
  H         6.2442383218       10.1468846744       30.9175097342
  H         5.4935253969        9.4774557763       29.4342273283
  C         5.2246225301        8.2372423032       31.3361697655
  H        -6.0991288607        9.3308898176       25.6018567902
  H        -6.7004967161        8.7024445890       27.0554428819
  C        -7.8190174376       10.3247653243       26.4153083392
  C        -2.3049614225       16.3250356626       35.3862544751
  S         4.6989685595        9.9462588490       11.1791359773
  C         3.9962912385        7.0081868577       11.2159685547
  H         5.8761124690        8.3155021625       32.2191391033
  H         4.2333883162        8.0135125151       31.6652058340
  C         5.6203670530        6.9558285899       30.5659292213
  H        -7.6711558167       11.1763916544       25.7346113204
  H        -7.9526611747       10.6987895297       27.3616557587
  C        -8.9433026795        9.4428619390       25.9615821293
  H        -1.9977364374       17.3566650989       35.3722616410
  C        -2.9286080844       15.8692158916       36.5742761629
  H         4.6025496904        7.2765919225       10.3378016796
  H         4.2832227034        6.0133843881       11.5188546468
  C         2.5696961300        6.9089809153       10.6691278680
  H         5.3599618024        7.1777780985       29.5555927271
  H         4.9338278623        6.1047063230       30.8410629772
  C         7.1017137945        6.5514585857       30.8750414811
  H        -8.9225017717        8.4125456859       26.3541787485
  H        -9.9817848881        9.7403976179       26.2055748269
  C        -8.9020562581        9.2492015753       24.4684441996
  S        -3.5688235523       14.3499761469       36.9183178730
  C        -2.9738980026       16.8405757533       37.7332340244
  H         2.5974640544        6.2005087015        9.7408225077
  H         1.8453038112        6.4616350064       11.3282828555
  H         2.3752326261        7.9098918820       10.2328260783
  H         7.8261654871        7.3942537493       30.6338422818
  H         7.2775263372        5.6502363017       30.3644653982
  H         7.2216919157        6.3142000107       31.9258457363
  H        -8.6199871083        8.3410427799       23.9818722010
  H        -8.2947289973       10.0561780711       24.0741654699
  H        -9.9190127604        9.3514903626       24.1908913479
  C        -3.7711984365       14.9270481770       38.6406338709
  N        -3.6787184222       16.2836683066       38.7423599440
  O        -2.5583762687       17.9527894088       37.6581643090
  S        -4.4027344451       14.0064077436       39.9381407132
  C        -3.7940902307       16.9971896985       40.0443798672
  H        -4.3543374521       17.9227780391       39.9340019325
  H        -4.3930134259       16.4288466344       40.7810613796
  C        -2.4670844258       17.2452411308       40.7244192173
  H        -2.0342341319       18.2666481370       40.5247875138
  H        -2.5516141876       16.9696778742       41.8135165522
  H        -1.8348807650       16.4586497522       40.2943583673
