352
 i =    53700, time =    53700.000, E =        24.8203425739
  H        12.2581253938        5.3372573195       32.3915788795
  C        11.2348128669        5.7634676357       32.2343532650
  H        10.6163627168        4.9090509300       32.1782946484
  C        11.2272128655        6.8291987908       31.0903404557
  C        10.6640641379        6.3803833044       33.5784560831
  C        11.4766690444        6.1900651954       29.7066348060
  H        10.2542136296        7.2771938684       31.1213867468
  H        11.9812766643        7.5589874798       31.4194130926
  H        10.8335034647        5.6930792237       34.4188514646
  H        11.1018964778        7.3593787719       33.7578561149
  H         9.6717960018        6.7451003810       33.5035550641
  C        10.1802664190        6.0874407897       28.8002284133
  H        11.8793632825        5.2468054052       29.7591784880
  H        12.2570856322        6.7239659350       29.2095988283
  C        10.5993184866        5.8065797167       27.4026358825
  H         9.4039047771        5.3941163303       29.1805311074
  H         9.6458007021        7.0291476571       28.6937199548
  C         9.5965982300        5.1496359678       26.5397326034
  H        11.4265607962        5.0920215577       27.5540884010
  H        11.0104661624        6.7098701526       26.9784479185
  C         8.4309025494        6.0338531229       26.3803446024
  H         9.9271070858        4.8388687641       25.5313467013
  H         9.3005561582        4.3088476905       27.0877189294
  C         7.2799903333        5.3281255515       25.5620537705
  H         8.0127105248        6.3898998933       27.3406270551
  H         8.7060911878        6.8888603187       25.7674714627
  C         6.8240098576        3.9875155150       26.1655957551
  C         7.6840208186        4.6106803478       24.2839687367
  C         6.0664281911        6.3065789252       25.4346971155
  C         7.1204516570        2.8790184133       25.2939205202
  C         6.4325520787        3.5621790993       27.4531089613
  C         7.6229751454        3.2900577993       24.0661926609
  C         8.3205917772        5.3083490990       23.1919998181
  H         6.2764314596        7.1542278745       24.8253417598
  H         5.9093948576        6.7773720387       26.4343320745
  C         4.6903102159        5.7435227328       24.9678811756
  S         6.7802524995        1.3881716522       26.0270711532
  C         6.4299001005        2.2173367378       27.4945883806
  H         6.0443711568        4.2271920314       28.2720097246
  C         8.0868372106        2.7518880119       22.9495300678
  H         8.5122255866        6.2966670236       23.3556084171
  C         8.5860209886        4.7299777051       21.9906173996
  H         4.8736468381        5.5801507927       23.9203793615
  H         4.3312327522        4.7915530771       25.2032524408
  C         3.5198069788        6.7344101291       24.9983254964
  C         6.0376539360        1.4728317175       28.7529072540
  C         8.5083067110        3.4338762769       21.8157034174
  H         8.0611877741        1.6873122173       22.9201594282
  C         9.0444336859        5.1225537504       20.7266739284
  H         2.7496374779        6.5199532052       24.3060921533
  H         3.8052530932        7.6672654733       24.5469603669
  C         3.0181996952        6.8281771473       26.4981914385
  C         6.0667974507        0.0857060589       29.0184114968
  C         5.6010807527        2.2403211944       29.9370291089
  C         8.9484832194        2.6846900263       20.5512463963
  C         9.3462458747        4.0668244730       19.9377219294
  S         9.3486230173        6.6280164678       19.9988217191
  H         2.2586880039        7.5995948321       26.5684603947
  H         3.8444272319        7.0377985819       27.2382513544
  C         2.4149988481        5.5376522506       26.8915637935
  N         6.3602013845       -0.8784354015       27.9917557350
  C         5.8691055765       -0.5102398807       30.1926913650
  C         5.3229007095        1.5380029131       31.1065713592
  H         5.5250809716        3.3055286345       29.9359151213
  C         7.8600497656        1.9965711428       19.8020054590
  C        10.2744338461        1.9114496993       20.6556771765
  C         9.8200363265        4.4797118915       18.6679920600
  C         9.7523610376        5.8249347668       18.5014197832
  H         1.7119166120        5.1418861962       26.0702549036
  H         3.2295179770        4.7315077309       26.9046105428
  C         1.7366778602        5.6081345871       28.2505086489
  S         6.4723692352       -2.3361557050       28.6478332227
  N         6.1567640676       -1.8880244495       30.1562925875
  C         5.3703412005        0.0902500635       31.3060212801
  H         5.1737935434        2.1814936075       32.0249416411
  H         7.5938087530        1.2296447224       20.4915617786
  H         8.3778633872        1.5211872613       18.9178068219
  C         6.6523744107        2.8367961782       19.4116669270
  H        10.6167545139        1.7774369890       19.6401734571
  H        10.0122850719        0.9167251539       21.0169737870
  C        11.3610003733        2.6106934737       21.6032114275
  H         9.9702127771        3.7156776778       17.9337304520
  C         9.9508426402        6.5468195840       17.1829358595
  H         0.9592510510        4.9147593259       28.2700797526
  H         1.1819329621        6.5733202728       28.3461236098
  C         2.5563745220        5.5216176107       29.4417326219
  C         5.2001790783       -0.5784999614       32.5893801392
  H         6.8261954061        3.7108415552       18.8251564411
  H         6.3002518967        3.2831873316       20.3838680766
  C         5.5572587179        1.8731401452       18.9707251624
  H        11.1037004227        2.5814274314       22.6283516439
  H        11.3762241641        3.6789210187       21.3119280011
  C        12.7570214320        1.9878417663       21.3339419342
  C        10.0524796163        8.0085756052       17.1375114330
  C        10.3094617148        5.8063500762       15.9363639977
  H         3.1112033960        4.5985548036       29.3118413450
  H         3.3226273696        6.3095179484       29.4320665020
  C         1.8611548347        5.5908914919       30.7934565891
  H         5.3314529728       -1.6533100587       32.5143833435
  C         4.8894984296       -0.0760955052       33.8684950960
  H         5.2330974489        1.0916616716       19.5909847827
  H         5.7874267952        1.3896594155       18.0364219495
  C         4.3100690005        2.6658100410       18.6107028395
  H        12.9596338930        1.2882488682       22.1037750371
  H        12.7505568670        1.3612762932       20.4301576911
  C        13.8275511086        3.0688601128       21.2065873201
  N         9.8191579503        8.9052445387       18.1834166984
  C        10.3901566392        8.6975644002       16.0030514345
  C        10.5221432485        6.5402315196       14.7589450961
  H        10.3264540563        4.7794749575       15.9015222081
  H         1.8029824134        6.6092626423       31.1310470360
  H         0.8798929054        5.1699401509       30.9439457873
  H         2.5350865426        5.1408521637       31.5815327691
  S         4.5217909275        1.5386282057       34.3266411390
  C         4.8242279920       -1.0716857733       35.0234016730
  H         4.2461360599        3.3882206344       19.4910046217
  H         4.4845248713        3.4544285201       17.8703858975
  C         3.0628800078        1.7546637097       18.5665381030
  H        13.4617870160        4.0131578345       20.9590734818
  H        14.5547092393        2.9406864083       20.4468284164
  C        14.5111246200        3.3297581712       22.5408271639
  S         9.8995362037       10.3668682685       17.6744079513
  N        10.4041974441       10.0660781147       16.1434702819
  C        10.6887551457        8.0319773622       14.8079054098
  H        10.5583120186        5.9769263210       13.8354341949
  C         4.2921163302        0.9047870638       35.9409324369
  N         4.3845273294       -0.4455620330       36.1300083492
  O         5.1199515965       -2.2579784766       34.9496413926
  H         2.2301465371        2.4292567588       18.5795207828
  H         2.8730026225        1.3523491754       19.5925772771
  C         3.1429576288        0.5551534640       17.5106907746
  H        14.9684642308        4.3239638363       22.4165162909
  H        13.8291635654        3.3531623698       23.3858122077
  C        15.6077832490        2.3823368775       23.1522395609
  C        11.0304500151        8.7519000885       13.6394250106
  S         3.8450158837        1.9306192463       37.3441607057
  C         4.4454797064       -1.0807488969       37.4986440625
  H         2.9258905114        0.7595042708       16.4902827068
  H         4.1401125882        0.1148981527       17.3569981871
  C         2.3804535367       -0.6840673840       18.0587209629
  H        15.1448177030        1.4509589824       23.2699157636
  H        15.9461656682        2.6929451458       24.1851998574
  C        16.6709364896        2.2345983385       22.1183660991
  H        10.5877931952        9.7778781646       13.6001850863
  C        11.6275918835        8.4565581728       12.3947042810
  H         3.6697432907       -0.7628691941       38.2008282719
  H         4.2970965252       -2.1246705335       37.4132742014
  C         5.8119603453       -0.9133953433       38.0646998287
  H         1.3514812679       -0.3951516644       18.2837999360
  H         2.8896866775       -1.0016475073       19.0289085894
  C         2.4296754950       -1.8953560008       17.0895146544
  H        16.5379404265        1.3975763133       21.4480765144
  H        16.5797037273        3.1554388897       21.5891482813
  C        18.0383423581        2.1615489412       22.7605282721
  S        12.2019132238        6.9204608385       11.9497608386
  C        11.7138480583        9.4489270451       11.3337327421
  H         6.0957375689       -1.9089645341       38.4144252788
  H         6.5850011052       -0.5284032133       37.3676670124
  H         5.6773902644       -0.2558407988       38.8919642918
  H         2.9053639163       -1.5148114761       16.1947738978
  H         1.5140169009       -2.4196158494       16.8435335020
  H         3.0837723728       -2.6998298046       17.4863336514
  H        18.0390502225        2.1249949372       23.8255141963
  H        18.6399398878        3.0495188157       22.4954990604
  H        18.5539384707        1.3448472000       22.3018959578
  C        12.4067252369        7.6006623944       10.2844759152
  N        12.2230947151        8.9018857010       10.2249940837
  O        11.2301851495       10.6022532458       11.3656430868
  S        13.1625581135        6.6871609322        8.9426091359
  C        12.2983564076        9.6817548494        9.0473655028
  H        12.4199732606       10.7649702329        9.2675616410
  H        13.1969550850        9.3609550164        8.5145083997
  C        10.9812633565        9.4864984648        8.2532127125
  H        10.0899727962        9.7776928144        8.7601565819
  H        10.9220377888        9.9225022379        7.2346344421
  H        10.8654689928        8.4102490592        8.0068779443
  H        -2.4067250880       12.7975004400       17.6342361206
  C        -2.6424620137       13.7429090303       17.0244093520
  H        -1.6583075840       14.1968304291       16.8527544870
  C        -3.4431763992       14.6041296669       18.0107109450
  C        -3.3286469372       13.4844856365       15.7299231986
  C        -3.5977796820       13.8776123692       19.3927982032
  H        -2.9186497466       15.4735841796       18.2957175656
  H        -4.4379206681       14.8710542476       17.7389638735
  H        -2.5645757503       13.0881625209       15.0288382222
  H        -4.1950004505       12.7352383581       15.7897811335
  H        -3.5784534931       14.4400598782       15.2671514504
  C        -2.3368123692       13.9681752733       20.2880602401
  H        -3.9135003316       12.8498528837       19.2136099487
  H        -4.4548351605       14.3640733048       19.8729340671
  C        -2.5278183973       13.4120150394       21.7024514760
  H        -1.3978376803       13.6789464844       19.9159611276
  H        -2.1012165658       15.0258859968       20.4233460213
  C        -1.2605021198       12.8460666643       22.4002437182
  H        -3.3652167781       12.6760085233       21.6877160824
  H        -2.8219739343       14.2117643235       22.3700435922
  C        -0.1705649654       13.9303255809       22.6005676428
  H        -1.6300370782       12.5012378335       23.3803614920
  H        -0.8536143732       12.0421705934       21.8516980188
  C         1.0951171110       13.2659023156       23.3985265987
  H         0.1102769284       14.3367978246       21.6914284193
  H        -0.6257070050       14.7954622562       23.0769214740
  C         1.4794866426       11.9447709413       22.6107838566
  C         0.7940867927       12.4923081877       24.6360223230
  C         2.2878228017       14.2317992718       23.3754458499
  C         1.2639857500       10.7978899524       23.4521668808
  C         2.0203352323       11.5560679892       21.3920559466
  C         0.7988369021       11.1049321526       24.6912504125
  C         0.3338086089       13.1235644929       25.8147689651
  H         2.3541581661       14.7922292797       22.4233062569
  H         2.0662031034       15.0177455491       24.0736955768
  C         3.6901789486       13.6230400531       23.8605481241
  S         1.7050506733        9.3434833332       22.6074677982
  C         2.0672061734       10.1814073194       21.1756868008
  H         2.2788985801       12.3974408179       20.7198469434
  C         0.4386617548       10.4712330745       25.8727145008
  H         0.1824942170       14.1743282327       25.8035988245
  C        -0.0801950486       12.5097278327       26.9048792451
  H         4.0359355899       12.9597710744       23.1280143644
  H         3.4620873548       13.1706639046       24.8314065453
  C         4.8140832659       14.6184061905       23.9919519673
  C         2.5387084714        9.4795114947       19.9105905470
  C        -0.0715675071       11.1288914707       27.0088399136
  H         0.5148179347        9.4356562530       25.8408404449
  C        -0.5630714236       12.9029423623       28.0987795012
  H         5.6030552713       14.1027874313       24.5855700960
  H         4.7230308155       15.4840870341       24.5601934144
  C         5.4791406054       14.7612246435       22.6657995898
  C         2.5536237533        8.1255759620       19.6578869329
  C         2.9165682439       10.2760034020       18.7698450753
  C        -0.5257929861       10.4875582103       28.2841362328
  C        -0.8923906363       11.7922372540       28.9096926480
  S        -0.7513448159       14.4402993918       28.8773166210
  H         6.0616788285       15.6943251241       22.6317632915
  H         4.6884410852       14.7480730510       21.9291688929
  C         6.5071124305       13.6506996331       22.3876208783
  N         2.1690276659        7.1270606426       20.5903987571
  C         2.8239019216        7.5916937523       18.3901192267
  C         3.1623287553        9.7131541330       17.4918837085
  H         2.9043061135       11.3058560620       18.8795753248
  C         0.6379766870        9.6772389704       28.9609261858
  C        -1.7848600433        9.6255526944       28.0969148354
  C        -1.2209394117       12.2821435842       30.1870252612
  C        -1.2758251880       13.6459358197       30.3327474299
  H         7.2886457381       13.5558491451       23.1766700664
  H         5.9815082317       12.6835273235       22.3483350600
  C         7.2920137155       13.9227517498       21.0984490806
  S         2.2893267317        5.6914855476       19.8695449868
  N         2.7348926666        6.2335253111       18.4680788594
  C         3.1610928045        8.2934973783       17.2585537437
  H         3.4152134919       10.3341037275       16.6737988036
  H         0.8045099119        8.7212572741       28.4795401498
  H         0.2927627730        9.4445155603       29.9586702013
  C         1.9807457316       10.4714958504       29.0575749454
  H        -1.5742307966        8.9152136134       27.2937723336
  H        -2.0094297969        9.1913399662       29.1070862515
  C        -2.9875279059       10.3749742224       27.6113183192
  H        -1.4309136517       11.5871230502       30.9762555558
  C        -1.4505721350       14.3674129343       31.6684927624
  H         7.9248462494       13.0929629911       20.9405501997
  H         7.8653222319       14.8908466029       21.1776642173
  C         6.2620745993       13.9327003252       19.9571161151
  C         3.3918818857        7.6803946963       15.9931239340
  H         2.6070464272       10.2191056754       28.1979845312
  H         1.8559835925       11.5502352487       28.8698631526
  C         2.7755070661       10.1815963429       30.3513653462
  H        -2.6700768457       10.8933929743       26.6765580237
  H        -3.3900435942       11.1225829349       28.3282256686
  C        -3.9788726782        9.3452827505       27.2640559213
  C        -1.5889390159       15.7162880478       31.8587725604
  C        -1.5668686592       13.5404441484       32.9247804340
  H         5.5852076880       13.1273334025       20.0530020499
  H         5.6487016640       14.8432952520       19.9460368888
  C         6.8375165271       13.9015635155       18.6012731042
  H         3.3406603501        6.6209738483       16.1306528045
  C         3.7399581928        8.1652150678       14.7578223428
  H         2.6575350607        9.1987641872       30.6857265685
  H         2.3996897159       10.7072646735       31.2279692487
  C         4.2388456933       10.5607433521       30.1640439295
  H        -3.6866453780        8.9444245800       26.3359498847
  H        -4.0328601613        8.6906029984       28.1174874910
  C        -5.3964830346        9.8978089217       27.0935062612
  N        -1.3570152327       16.6298141234       30.8557977005
  C        -1.8309540425       16.3292050319       33.0992384047
  C        -1.9611486715       14.1621493610       34.1109253713
  H        -1.4453013203       12.4855829507       32.9652961470
  H         7.4489568827       14.7296556219       18.5050346823
  H         7.5143926292       13.0469198854       18.5254090267
  H         6.0593702757       13.9769265368       17.9599519175
  S         4.0148808606        9.7998804873       14.3162740431
  C         3.8662393622        7.2102806913       13.6454237809
  H         4.3404390543       11.3634245937       29.4576880043
  H         4.6451804404       10.9338125600       31.1203374688
  C         5.1023145583        9.4075304000       29.6436189377
  H        -5.4565348307       10.7670966026       27.7451895512
  H        -6.0345825732        9.0829682908       27.4220580375
  C        -5.6389035230       10.2706270131       25.6321065617
  S        -1.2595052796       18.0906598622       31.5746424017
  N        -1.7722221247       17.7229583547       33.0431544617
  C        -2.1633362005       15.5945160797       34.2747662739
  H        -2.2391704912       13.5146690110       34.8902858636
  C         4.3374740943        9.2298443452       12.6977489266
  N         4.2800088738        7.8563819092       12.5477001825
  O         3.4695723407        6.0533481348       13.7606719922
  H         5.7882063778        9.7500043852       28.9448865300
  H         4.5816237315        8.5464472044       29.1251720231
  C         5.9284452786        8.8515485880       30.7310707689
  H        -4.8390734438       10.8420938256       25.2360805469
  H        -5.6403709768        9.4355636314       25.0097960595
  C        -6.9409445635       10.9643138843       25.5033004882
  C        -2.5373621088       16.2690314481       35.5004360579
  S         4.7297809913       10.2408932465       11.2734806891
  C         4.3104224626        7.2127803728       11.2275171328
  H         6.7110006709        9.5055795561       31.0886597473
  H         5.3856048168        8.5580772386       31.6196384042
  C         6.7009764862        7.5315954256       30.2082355570
  H        -6.9900120164       11.4779710555       24.5638781735
  H        -6.9488636623       11.7743039617       26.2350960056
  C        -8.1653650226       10.1662685151       25.7000244526
  H        -2.2014373231       17.2717588563       35.4300086743
  C        -3.0837083836       15.8189589571       36.7150613969
  H         4.9986193862        7.6314870690       10.4843506909
  H         4.5276431565        6.1615437271       11.3352062039
  C         2.8808328265        7.2471206430       10.6437306866
  H         7.7436498370        7.7695058839       29.9523652380
  H         6.2730785222        7.0781137384       29.3082771001
  C         6.9062748234        6.4488629583       31.2746258378
  H        -8.2842323026        9.4507603670       24.9369134427
  H        -8.1915201620        9.6178627391       26.7021832404
  C        -9.3920417555       10.9848105891       25.7688718081
  S        -3.5157946657       14.1626202650       37.0640088260
  C        -3.1657881583       16.8339779492       37.7547266533
  H         2.3400225161        6.3062345365       10.6101266637
  H         2.3555531495        8.0152413948       11.1812061045
  H         2.8409381049        7.5217874259        9.5645102892
  H         7.4268703430        6.8358454993       32.1407258314
  H         7.3940189951        5.6675421164       30.7396676756
  H         5.9643866994        5.9383210909       31.5720420595
  H        -9.2609427008       11.9260550558       26.3284692427
  H       -10.1763168657       10.4120500936       26.3232076687
  H        -9.7161773353       11.1744505913       24.7997711051
  C        -3.9157753091       14.7863061939       38.6855578100
  N        -3.6501999161       16.1370181532       38.8545032586
  O        -2.7905599165       17.9996344114       37.6457710320
  S        -4.4920537974       13.7827248233       40.0128686566
  C        -3.6557905929       16.7648682169       40.1338325312
  H        -4.2369443561       17.6581794392       39.9813342197
  H        -4.1655150070       16.2174595508       40.8778421030
  C        -2.1980989865       17.0106502714       40.6235445609
  H        -1.4946165307       16.9116535219       39.8119616574
  H        -2.0426966370       18.0355857371       40.9434607968
  H        -1.9884192115       16.1780440865       41.3051882313
