352
 i =    62500, time =    62500.000, E =        25.3237200041
  H         9.0439302465        6.1106135037       31.7006955857
  C         9.9396587875        6.3714328948       32.2052872055
  H         9.7687098206        7.2873527472       32.9317641060
  C        11.0438527227        6.8528133524       31.1700176735
  C        10.4741048237        5.1860596023       33.0160625107
  C        11.2185599749        5.9078879638       29.9842133645
  H        10.7576031993        7.8620639685       30.8760013034
  H        11.9384832624        6.8994690551       31.7463256030
  H         9.9000577621        4.9083128985       33.9185549922
  H        10.5607441610        4.2467868581       32.4659901278
  H        11.5271294604        5.3918679622       33.4141010436
  C        10.0677903969        5.8422961645       28.9776861365
  H        11.3259508397        4.9304819559       30.4390978130
  H        12.1876676783        6.2234832144       29.6039992224
  C        10.5348093282        5.5818791994       27.4842700041
  H         9.4460059007        5.1145849041       29.4791385730
  H         9.4853114983        6.7565644086       28.9514969311
  C         9.4905744610        4.9595738672       26.5581607724
  H        11.3758026322        4.8811592181       27.5422459091
  H        10.8556963616        6.4745232596       26.9833798564
  C         8.2604746112        5.8046497852       26.3307868166
  H         9.9753555863        4.6494812225       25.6456198672
  H         9.2154412010        4.0292312722       27.0071385737
  C         7.1583360298        5.0177589504       25.4754067804
  H         7.8317244529        5.9949650550       27.3152281934
  H         8.4311739268        6.7314871310       25.7744136389
  C         6.7535863371        3.6066836818       26.0865637452
  C         7.5804434542        4.2833562716       24.2692501818
  C         5.9697837794        5.9752720928       25.0797060979
  C         6.8843992301        2.4676187973       25.2379895144
  C         6.2284798766        3.1690110269       27.3192591790
  C         7.4068420384        2.8932136133       24.0468247920
  C         8.1148426026        4.9205323562       23.1581131290
  H         5.4126186060        5.4255196761       24.3392916704
  H         6.3900118257        6.8975605178       24.7021314749
  C         4.9329297803        6.2348659739       26.2425263903
  S         6.3715442582        0.9548296419       25.9118931593
  C         5.9952778359        1.8341629590       27.4028323351
  H         6.2134920030        3.8763653170       28.1685960867
  C         7.7369066846        2.3692245304       22.8444637364
  H         8.3272034553        6.0125400058       23.2407596059
  C         8.4595612835        4.3238254765       21.9541842628
  H         4.9031626615        5.4249717922       27.0418655709
  H         5.2793312655        7.1526496704       26.8406957762
  C         3.4753026954        6.2243908813       25.9031860429
  C         5.6174413404        1.0893762533       28.6791798987
  C         8.3331895130        3.0189203202       21.7900234466
  H         7.5820159598        1.3026411778       22.7274581201
  C         8.9107704844        4.7864122541       20.7368757854
  H         3.2014332067        5.3348953989       25.4569320222
  H         3.2745062453        6.9942945017       25.1045179429
  C         2.4809564639        6.5745047168       27.0479059292
  C         5.6665559670       -0.3451062447       28.8887188290
  C         5.2919171802        1.8926867457       29.8830123708
  C         8.6643073135        2.3648375452       20.5136591654
  C         9.0528801361        3.6942324509       19.8383347239
  S         9.4134382300        6.2974862296       20.0338531574
  H         1.9293024526        7.4854209997       26.7493103101
  H         3.0610693848        6.8573690112       27.9464984935
  C         1.6624954310        5.3098408814       27.3877626338
  N         5.9531245581       -1.3556015478       27.9391533470
  C         5.3778204651       -0.8715832274       30.0780310866
  C         4.9735898524        1.3171178592       31.1205343173
  H         5.3482652668        2.9316079220       29.8600056201
  C         7.4851828292        1.5560671991       19.8136115414
  C         9.9195672819        1.4198353381       20.8355580650
  C         9.5841503869        4.1433970863       18.6615770431
  C         9.7385301992        5.5093572790       18.6248906798
  H         0.8451129868        5.3567086666       26.6692372989
  H         2.1796920293        4.3405425646       27.2582508333
  C         1.1376918767        5.3787423208       28.7741347055
  S         5.9730756562       -2.8440793801       28.6728503312
  N         5.5255318026       -2.2661107925       30.1198414949
  C         5.0325287898       -0.1788869707       31.2490113239
  H         4.7628195114        1.9562179959       31.9292707044
  H         7.0690151642        0.6976980908       20.3676878119
  H         7.7749100026        1.2656640447       18.8538828168
  C         6.3337183889        2.5151832591       19.4938452078
  H        10.2186359738        0.8838447855       20.0032635686
  H         9.6547411799        0.6512142327       21.5376457712
  C        11.1600859639        2.1515135808       21.4214014892
  H         9.6597049407        3.4065471251       17.8656811893
  C        10.0569469688        6.3117259472       17.3989037394
  H         0.1356662734        4.8540824058       28.7700013086
  H         0.8132601517        6.4043334141       28.8468443383
  C         2.2638897111        4.9896119017       29.8517287799
  C         4.8504199066       -0.8651538547       32.5386524920
  H         6.6251068868        3.1407185617       18.6116779591
  H         6.1200950484        3.1408993334       20.2884223982
  C         5.0226015558        1.7866917623       19.1423196733
  H        10.9597643984        2.3535587754       22.4762452705
  H        11.3938317945        3.0652935785       20.7499293864
  C        12.3237548999        1.2227737635       21.1069206819
  C        10.0219298643        7.6963458865       17.1865085881
  C        10.3482731621        5.4829494708       16.1218244237
  H         2.6819746697        3.9805719136       29.6929636582
  H         3.1274163181        5.6586852858       29.7464777791
  C         1.5857392479        5.1049203253       31.2046580811
  H         4.9204672534       -1.9298858591       32.5410290053
  C         4.5583462214       -0.4385066075       33.7726425418
  H         4.4142020818        1.9819393425       19.9808199174
  H         5.1786174624        0.6880610920       19.0618840840
  C         4.3278946957        2.1296735768       17.7964385426
  H        12.2167940049        0.3827405653       21.7346727511
  H        12.4104287412        1.0508653676       19.9836288822
  C        13.5181194519        2.1602434932       21.4131678896
  N         9.7581138043        8.6755212073       18.1155144352
  C        10.2944106799        8.3326573713       15.9532022228
  C        10.5649894807        6.1070603865       14.9086772092
  H        10.2460784947        4.4328000155       16.1330808687
  H         1.2159949584        6.0890025381       31.3127866336
  H         0.6070543399        4.6037737849       31.2051747033
  H         2.2953061974        4.9027102602       31.9773393590
  S         4.2434489780        1.1772929789       34.2770816086
  C         4.4551782695       -1.4901328492       34.8172989551
  H         4.1138514300        3.2341916589       17.6059450668
  H         5.0321224498        1.9573552641       16.9817587080
  C         3.0450592417        1.3943565481       17.4344330133
  H        13.3708580692        3.0339133669       21.9832254086
  H        13.8582275659        2.4903668016       20.4500008723
  C        14.5729646033        1.5420400526       22.2276105051
  S         9.8134064889       10.1150395604       17.4234394454
  N        10.1363431714        9.6813729790       15.9062156143
  C        10.5257706809        7.5812665277       14.7933200521
  H        10.8248200510        5.5080689550       14.0743861534
  C         3.9043516327        0.5208649470       35.8802200883
  N         4.1148553836       -0.8414496890       35.9740543077
  O         4.7272198421       -2.6826787886       34.7031046779
  H         2.3117313477        2.0128487026       16.9104766921
  H         2.5419475757        1.1408249858       18.3640398438
  C         3.2978692565        0.1614586402       16.5735942016
  H        14.1409625317        0.8692862784       22.9444671504
  H        15.0451044295        0.7459953035       21.7142282493
  C        15.5624013861        2.5535642878       22.8122161886
  C        10.8237182963        8.2505607582       13.5278870494
  S         3.4425318088        1.6406889423       37.2355227561
  C         3.9593226903       -1.4456917382       37.2761606000
  H         3.4623374905        0.6034746338       15.6198845560
  H         4.1931261673       -0.4339727239       16.8228460288
  C         2.0832862838       -0.7243522021       16.5322051994
  H        15.1296004040        3.1585345475       23.6409671457
  H        15.9356060404        3.1550395388       22.0189339544
  C        16.6923241766        1.9999304995       23.5835962883
  H        10.8228101936        9.3903805392       13.5287322104
  C        11.2992590902        7.9050165172       12.2843698771
  H         3.1448758320       -1.0271227045       37.8883985910
  H         3.6815075030       -2.4553166980       37.0452609348
  C         5.3280551267       -1.3245340845       38.0135791858
  H         1.7363221921       -0.8295171205       15.4519283362
  H         1.3879329643       -0.0791161532       17.0927090263
  C         2.1478009520       -1.9873644976       17.3742052220
  H        16.6672468678        2.3829226521       24.5888596677
  H        16.5495134642        0.9021109689       23.7122961524
  C        18.1311313888        2.0810114995       23.0501717518
  S        11.8909116090        6.2899239392       11.9630317292
  C        11.4932175976        8.9305504796       11.2346557010
  H         5.2525291015       -0.4228117707       38.5303779261
  H         5.8054595885       -2.1361997025       38.6200519621
  H         6.1472422155       -1.1134397549       37.2261505887
  H         2.9654248239       -1.9128825366       18.0073091927
  H         2.1405246603       -2.7874753146       16.6105021892
  H         1.2520286568       -2.0605838492       18.0102769465
  H        18.7100642478        1.5150102426       23.7615632896
  H        18.4421886014        3.0842583184       23.0787751342
  H        18.2013155085        1.7260591156       22.0384823234
  C        12.3032688620        6.9564453933       10.3363108455
  N        12.0617271083        8.2795110482       10.1479730459
  O        11.0563945889       10.1100543343       11.2254677446
  S        12.9944677267        6.0009290958        8.9759956498
  C        12.4077356967        8.9747644261        8.8487804873
  H        12.4962744219       10.0416507141        9.0823407618
  H        13.3366680322        8.6984866378        8.3925073483
  C        11.2314249663        8.6892989373        7.9183081255
  H        11.0655866985        7.6244002992        7.6888127496
  H        10.3600029616        9.0256644212        8.5584592937
  H        11.2726341601        9.2402758037        7.0148220703
  H        -3.6585326736       13.5083447323       16.0211890954
  C        -2.5889655573       13.7006607769       16.0718336374
  H        -2.0411947212       12.7516303092       16.1345410693
  C        -2.1223068280       14.3712786792       17.4153295650
  C        -1.9893119017       14.4344596374       14.8621895181
  C        -2.3371339931       13.4933694619       18.6297780077
  H        -0.9973535810       14.5213978413       17.3613976975
  H        -2.6692730383       15.2540994376       17.5930923890
  H        -2.4667524369       15.4138224971       14.5125172579
  H        -0.9313085917       14.4926739432       14.8783011380
  H        -2.1288097149       13.5749240959       14.1175430087
  C        -1.7164722927       14.1688444585       19.8242372946
  H        -1.8474028486       12.5093528335       18.4672668307
  H        -3.4078390314       13.3578376184       18.8043364897
  C        -2.2508263475       13.8478338863       21.2323562639
  H        -0.6670756966       13.9757069625       19.6635381326
  H        -1.9806605195       15.2525105246       19.7268832544
  C        -1.2203482242       13.0274131809       22.0489556757
  H        -3.0681500001       13.1215324667       21.1412848939
  H        -2.5670636755       14.7509282817       21.6241453164
  C        -0.0134754116       13.9085059612       22.5435727497
  H        -1.8173810756       12.5083693537       22.8457758539
  H        -0.7226102515       12.2902220811       21.5707318118
  C         1.1217480555       13.1795288263       23.3827314548
  H         0.3985081045       14.3572316361       21.6260917810
  H        -0.1808268736       14.8249539723       23.1088076844
  C         1.4743392254       11.8065209767       22.6847153909
  C         0.7097184775       12.4419779490       24.5975957805
  C         2.3931995225       14.1016397783       23.6021980060
  C         1.3685743564       10.7087015616       23.5188230613
  C         1.9731461120       11.4292498119       21.4360704229
  C         0.7842821243       11.1076461070       24.7174609213
  C         0.1604012028       13.1220847922       25.6604003541
  H         2.3361348810       14.7128537009       22.6680072837
  H         2.1958611838       14.7568161676       24.4207498223
  C         3.6390428453       13.3310736197       23.8333992263
  S         1.8066875109        9.2517443320       22.8141344419
  C         2.2521467593       10.1047211807       21.3967864500
  H         1.9732210103       12.2260107655       20.6682516716
  C         0.3442180909       10.5351316204       25.8718031498
  H         0.2233893909       14.1397158704       25.5282265938
  C        -0.1923191548       12.5889189592       26.8309724603
  H         3.8300775767       12.6285004624       22.9931143879
  H         3.6383986848       12.7079424786       24.7606355700
  C         4.8680969484       14.2095235303       23.7810756614
  C         2.6408939328        9.4681351290       20.0629481190
  C        -0.1370460555       11.2180395388       26.9908192042
  H         0.6333988683        9.4803668330       26.0267323527
  C        -0.5634769904       13.0391768325       28.0543749588
  H         5.5770793794       13.6619102385       24.4597855631
  H         4.6540732704       15.2057160004       24.2579939979
  C         5.3544125282       14.4024993402       22.3124800460
  C         2.5791103664        8.0947536351       19.7854498654
  C         3.0506955499       10.4163274823       18.9312128103
  C        -0.5748288745       10.5476895059       28.2056479316
  C        -0.7505581175       11.9536331602       28.9060564538
  S        -1.0649656528       14.4885852011       28.6904992907
  H         5.9777342969       15.2838131731       22.3530515196
  H         4.4632466154       14.5720277352       21.7908389248
  C         6.1730986682       13.1711418403       22.0112384060
  N         2.2375135053        7.0513026658       20.6396695878
  C         2.8502708709        7.6328130961       18.4891327172
  C         3.2600679586        9.9338891561       17.7222630696
  H         2.9815753673       11.4492482693       19.0160835857
  C         0.4740576913        9.7196405355       28.9206993163
  C        -1.9557556753        9.8405642903       28.1559960294
  C        -1.1154498949       12.4243479734       30.1906841654
  C        -1.4020725604       13.7519793457       30.2435998927
  H         6.9654635430       13.1217013518       22.7548307138
  H         5.6681585233       12.1866479813       22.0497906874
  C         6.7206185255       13.1870184428       20.5701460131
  S         2.2120309346        5.6196795187       19.8536995144
  N         2.6576121267        6.2307273954       18.3795973168
  C         3.2456956831        8.5097091850       17.3939610626
  H         3.4370090788       10.5166556583       16.8549536546
  H         0.7994521286        9.0000570405       28.1970813032
  H        -0.1124800790        9.1991746547       29.7252784942
  C         1.6188547902       10.4165019398       29.6805477796
  H        -1.9624304777        8.8913133458       27.5332856870
  H        -2.3643980062        9.6885347173       29.1321993987
  C        -3.2110058083       10.6745797055       27.6304695898
  H        -1.2140827559       11.7069116223       31.0038739808
  C        -1.8806788369       14.4181784016       31.5462862155
  H         7.0645840816       12.1344913054       20.3312317077
  H         7.6721407697       13.7492252217       20.6136381014
  C         5.8352679417       13.5701769374       19.4498511188
  C         3.3725169998        7.9155564708       16.0880937178
  H         1.9811317923       11.1907372198       29.0714107918
  H         1.1720585706       10.8579834713       30.5495476773
  C         2.7450905222        9.4550729726       29.9397868613
  H        -3.2097854025       10.8270984983       26.5696343551
  H        -3.2383068797       11.7166470689       28.0115687748
  C        -4.5070424443        9.9881683550       27.9887023611
  C        -1.8703910391       15.8806632427       31.6992840260
  C        -2.2107139939       13.5938065061       32.6915204545
  H         4.9777612183       12.8740895769       19.2693066523
  H         5.4227623902       14.5876752692       19.5000525777
  C         6.6328819206       13.4901643899       18.0827029058
  H         3.1472832490        6.8989091209       16.0644367769
  C         3.7058551553        8.3673514745       14.8525645707
  H         3.0903267131        8.9679078026       29.0607028861
  H         2.4743733319        8.6813550597       30.6363446278
  C         3.9546466633       10.0319366741       30.6880430637
  H        -4.5203268406        9.0360157355       27.5218499914
  H        -4.7095024658        9.7061272713       29.0120933050
  C        -5.6562703484       10.8465724478       27.5143698278
  N        -1.5327638613       16.8353151989       30.7132958440
  C        -2.2175026110       16.4125398130       32.9297342959
  C        -2.5305732265       14.1585700361       33.8513077138
  H        -2.2917999566       12.5180174403       32.5078278640
  H         6.4526093852       14.4083986453       17.5072744291
  H         7.7528443665       13.5024353555       18.2643492446
  H         6.3312302270       12.6249560340       17.4456412779
  S         4.0872994776        9.9593646913       14.4154889235
  C         3.7233185862        7.3474353667       13.7816198366
  H         4.2473871998       10.9628684835       30.2488097904
  H         3.7759666870       10.2911147759       31.7270362210
  C         5.3176929986        9.2705153720       30.5883367509
  H        -5.2664422285       11.7861694532       27.1548176645
  H        -6.3204266762       10.8502377127       28.4139299976
  C        -6.4988761731       10.0086046588       26.4346870660
  S        -1.6694460385       18.2923448357       31.4071448781
  N        -2.1641232690       17.8304247525       32.9355415700
  C        -2.4676433021       15.6523751825       34.0690398601
  H        -2.6257285283       13.5530480800       34.7322095258
  C         4.5891517363        9.2781524593       12.8999447904
  N         4.3166571464        7.9702051073       12.7487116286
  O         3.4564624166        6.1465908161       13.8556745069
  H         6.1182472280        9.9583140180       30.9340122834
  H         5.6415875153        8.9455202139       29.5636586120
  C         5.3311402203        8.0290525481       31.6014326174
  H        -5.8231759165        9.6643701235       25.6211746606
  H        -6.9836877764        9.1321270319       26.8990286337
  C        -7.3707652114       10.8644362728       25.6165301797
  C        -2.8714519138       16.3291300275       35.3245418539
  S         4.8445607137       10.2166021621       11.4507191483
  C         4.5503272802        7.2138473413       11.4550756975
  H         5.5521877698        8.3324244906       32.6241669403
  H         4.3512809906        7.5838811330       31.5858536488
  C         6.3713779714        6.9688292020       31.0683382946
  H        -6.7200706766       11.2986483484       24.9050184692
  H        -7.7616359148       11.6541488549       26.2659016684
  C        -8.5014249440       10.0808477658       25.0515145572
  H        -2.8253486036       17.4059486770       35.2290433926
  C        -3.5675725717       15.9164905598       36.4346074758
  H         5.4030949190        7.7453770632       10.8637765478
  H         5.0099546247        6.2184402473       11.5553160619
  C         3.3002273588        7.1841085629       10.5118273934
  H         6.8343205662        6.4536029019       31.9301669649
  H         7.1409957341        7.4504067412       30.4836979445
  C         5.7836521137        6.0126666477       30.0092688402
  H        -8.8795381389       10.7389931829       24.2930535249
  H        -8.3703901371        9.0968301956       24.6229010116
  C        -9.7149769852        9.9416262369       25.8298351113
  S        -4.0806501421       14.3980138345       36.8715379778
  C        -3.7992584466       16.9632717988       37.4677189966
  H         2.3870784921        6.6658098614       10.7534713963
  H         3.0303039050        8.2180807792       10.5203358095
  H         3.5405951123        7.0631522541        9.4226496999
  H         5.2388036728        5.2205564708       30.5728547892
  H         6.5135999859        5.4842997885       29.4502698273
  H         5.1274811801        6.5384751510       29.3080052978
  H       -10.6126085618        9.8608264777       25.2135113312
  H        -9.7601776817       10.8106412575       26.5441358559
  H        -9.7190428861        8.9706443699       26.3329049272
  C        -4.6426301496       15.0587774700       38.3815399366
  N        -4.3289167618       16.3567237001       38.5922637255
  O        -3.3606816342       18.0912856959       37.4089404018
  S        -4.9087820417       14.1107270417       39.8336046711
  C        -4.5443445971       17.0401442585       39.8163215563
  H        -4.9125308529       18.0680871815       39.5757240158
  H        -5.4510192981       16.6756679102       40.3745315623
  C        -3.2354727575       17.0056527542       40.6533420273
  H        -2.3651415146       17.1484899006       39.9835066352
  H        -3.3071453980       17.8159561367       41.4229487342
  H        -3.2530096767       16.0917712726       41.2086697223
