352
 i =    84500, time =    84500.000, E =        24.5948708090
  H         9.9221277793        6.6092519069       32.4851711562
  C        10.9896967873        6.4093044269       32.6091999859
  H        11.4919605841        7.2815659841       32.9380007214
  C        11.6642465788        5.9772892800       31.3396786233
  C        11.1060488962        5.4061424703       33.7431359496
  C        10.7768547837        5.2588546587       30.2501396674
  H        12.1948309816        6.8150186064       30.9795118243
  H        12.3937329746        5.2644384427       31.6067568131
  H        10.5845310328        5.6871488863       34.6637332088
  H        10.6426810212        4.4859189181       33.4664095131
  H        12.1405014115        5.1261566904       33.9878077408
  C        10.3485926145        6.2506169465       29.1169601922
  H         9.8832305072        4.8950265409       30.7840404825
  H        11.2818657309        4.4177985767       29.8596481951
  C        10.8298311512        5.7593120970       27.7453279520
  H         9.2871093275        6.5392513302       29.2453040109
  H        10.7497732440        7.1767128208       29.2741117351
  C         9.6938001753        5.0870286663       26.9969924405
  H        11.6898381065        5.1595757412       27.8982220606
  H        10.9833097958        6.7291846297       27.2352189647
  C         8.5421729038        6.0386722964       26.5010258075
  H        10.2364703457        4.5817943233       26.1656284766
  H         9.2675050013        4.3931461178       27.6645974696
  C         7.4766914406        5.2922473612       25.6635259192
  H         8.2023151654        6.6408279434       27.3271050050
  H         8.8714191386        6.8151676969       25.8394266304
  C         7.1717499478        3.9148743107       26.2666250915
  C         7.9428188427        4.6049698448       24.3854510219
  C         6.2138046617        6.1431636627       25.3200398613
  C         7.4999396812        2.8474227458       25.4448518201
  C         6.7434847105        3.4496663203       27.4967827807
  C         7.9893727534        3.2246499219       24.2345169291
  C         8.5498675343        5.2617000520       23.3173370871
  H         5.5871443988        5.6884044386       24.5268237670
  H         6.4182986498        7.0597460284       24.7342817221
  C         5.3733309578        6.5828774383       26.5091513885
  S         7.2850643823        1.2979558565       26.1429803478
  C         6.7562191260        2.0659075042       27.5778092301
  H         6.4046509745        4.1298932296       28.2527174041
  C         8.5022242349        2.6741238566       23.0637642538
  H         8.5249132892        6.3035999425       23.4425348129
  C         8.9955418581        4.7632435111       22.1694260870
  H         5.7601612018        6.0439650040       27.3683826591
  H         5.4282212848        7.6387476334       26.7709689387
  C         3.8443078528        6.3132671662       26.2394776050
  C         6.3516228834        1.3210959687       28.8339379631
  C         8.9153442519        3.4092209222       21.9923198764
  H         8.4509068283        1.6284929975       22.8825621621
  C         9.4862850093        5.2004786414       20.9666627140
  H         3.7305769199        5.2512806412       25.8579319364
  H         3.6790505731        7.1179854781       25.4435294975
  C         2.8509081188        6.4795583405       27.3589088806
  C         6.4289680163       -0.1015994249       29.0662080799
  C         5.7672674745        2.1084641228       29.9267158273
  C         9.4065324331        2.6724435402       20.7498591181
  C         9.6385383872        4.0913710134       20.1288934119
  S         9.7022802753        6.6920416731       20.2169153832
  H         1.9542676586        6.8878286988       26.8719618978
  H         3.1230050983        7.3511134690       27.9342472874
  C         2.4883937454        5.1481168169       28.1706410588
  N         6.8693019850       -1.0747170958       28.1151959717
  C         6.1353192677       -0.6638933172       30.3272944013
  C         5.7416419123        1.6395833911       31.2189684627
  H         5.3109729466        3.0994440044       29.7741479466
  C         8.2476887559        1.9242083537       20.0025184202
  C        10.7478320526        1.9473171297       20.8509859145
  C        10.0478608697        4.4986356170       18.8946391965
  C        10.0334631281        5.8989107361       18.7858264690
  H         1.9215554327        4.5890463643       27.4121944627
  H         3.4148887097        4.6904820473       28.4451410689
  C         1.6105204579        5.5124476915       29.4228902960
  S         6.7764977101       -2.5216927645       28.8143507211
  N         6.3103068994       -2.0753435409       30.2872059606
  C         5.8215387410        0.1372032649       31.4608290963
  H         5.2896246036        2.3026624267       31.9126310711
  H         8.0409968646        0.9426493479       20.4061552275
  H         8.5790835376        1.9411937031       19.0058883755
  C         6.9729947755        2.7339557799       19.9135199387
  H        10.8957703815        1.2789503607       20.0430901360
  H        10.7119843448        1.3344991195       21.7176382880
  C        12.0051781213        2.8503716265       21.1464871598
  H        10.3273004471        3.7951587320       18.0551371696
  C        10.4042741774        6.6377100760       17.5775319884
  H         1.1198165850        4.6488598677       29.8334060151
  H         0.8793462175        6.2119450814       29.0792200159
  C         2.3345908729        6.1375988958       30.6312882802
  C         5.5856039491       -0.4889999301       32.7248359872
  H         7.0318348209        3.4831521956       19.0540960629
  H         6.8248110433        3.3617184828       20.7971408194
  C         5.7050687427        1.9082528285       19.7562070532
  H        11.8403584059        3.4718930084       22.0482227211
  H        12.1459630196        3.6218006931       20.4162278792
  C        13.2481044442        1.9328184356       21.3132794637
  C        10.4205498162        8.0585619928       17.4029581887
  C        10.7525154696        5.8728997058       16.3553015497
  H         2.8712292616        7.0833460274       30.4101476108
  H         1.5819827347        6.5398455502       31.3735737203
  C         3.1883818179        5.0752665158       31.2990557326
  H         5.8021086598       -1.5332062845       32.7417290877
  C         5.1218542870        0.0483875609       33.9333348715
  H         5.0658010563        2.1804121384       20.6158477636
  H         5.9997758892        0.8271800652       19.8772515648
  C         5.0084134443        1.9327208118       18.3491271455
  H        12.9722511735        1.1293289286       22.0169422018
  H        13.6148053996        1.5161289588       20.3248341883
  C        14.4539325510        2.6936296477       21.8004626164
  N        10.0924332517        8.9942689328       18.4287809561
  C        10.8567327652        8.6531272557       16.2850842650
  C        10.9833993713        6.5124131952       15.1811921121
  H        10.8281176782        4.8230960324       16.4426587502
  H         3.9432768748        5.4417596931       32.1004765335
  H         2.6706358736        4.2160426262       31.5890291216
  H         3.9172079284        4.6761627337       30.5830927663
  S         4.6972205343        1.7373714495       34.4752315146
  C         5.0579647026       -0.9383697383       34.9834666919
  H         4.9065129197        2.9805257818       18.0338962828
  H         5.5492874425        1.4559161401       17.5427868664
  C         3.6342682726        1.2701059388       18.2357291375
  H        14.1363627963        3.7474194585       22.0504041124
  H        15.1574360981        2.7901838392       20.9355787630
  C        15.2235001989        1.9031842983       22.8616411908
  S        10.2531936714       10.5193092179       17.7718024889
  N        10.7828128169        9.9951705851       16.2918983113
  C        11.0629545782        7.9869143504       15.0879033188
  H        11.1280878024        5.9067441144       14.3371238431
  C         4.4893367527        0.9521138293       36.0196825305
  N         4.5797707628       -0.3832368438       36.1108565652
  O         5.2284194760       -2.1359690262       34.7856607089
  H         3.4197110524        0.9908006242       17.2370212762
  H         2.8042199985        1.9491643744       18.6507569889
  C         3.5428318320       -0.1093894486       18.9279240177
  H        14.5089507957        1.6630396070       23.6990064917
  H        15.6354490024        0.9953037185       22.4554275717
  C        16.3562241031        2.7401411695       23.4362347651
  C        11.5540485641        8.7232625496       13.9522847307
  S         4.0118345412        1.8043803316       37.5168321582
  C         4.5275410760       -1.0691760391       37.4052930563
  H         4.5018795511       -0.6258014594       19.0509707554
  H         3.3245045191        0.1377077144       20.0020985330
  C         2.4318696885       -1.0904128167       18.4400832207
  H        15.8607076737        3.4754455852       24.1328808193
  H        16.7853120085        3.3060646061       22.5671309664
  C        17.3103239287        1.8894947148       24.2659377411
  H        11.4328936792        9.8335613922       13.9758986888
  C        11.9625970855        8.3262035865       12.6533925547
  H         3.6953535898       -0.7130636706       38.0533071078
  H         4.3221616144       -2.0786949377       37.1693089289
  C         5.8035283666       -0.9731839438       38.1864403831
  H         1.4853627510       -0.6041702422       18.3044411943
  H         2.2939966671       -1.9076580090       19.1187585117
  C         2.6756578188       -1.5600515029       17.0057724760
  H        17.3731603150        2.3263371048       25.2781984928
  H        16.7501772339        0.9506349723       24.4430099524
  C        18.6569861793        1.7724766280       23.5070167593
  S        12.0592216238        6.6337385154       12.1396094495
  C        12.3079142545        9.3764848866       11.6236726849
  H         6.0353625135       -1.9247980977       38.6915483910
  H         6.7848742781       -0.7666715710       37.6236703829
  H         5.5627792508       -0.1966527727       38.8822765585
  H         1.9956279508       -0.9918228314       16.4217227565
  H         2.5398148505       -2.6461659983       16.8361043595
  H         3.6581154500       -1.3317543063       16.7048884459
  H        18.4670234872        1.2834497382       22.5783049746
  H        19.2740943003        1.0459433571       24.0058657653
  H        19.1877961402        2.7253535827       23.2905930068
  C        12.5623199474        7.3306727969       10.6090556906
  N        12.6231462746        8.6860821204       10.5302502883
  O        12.2814024514       10.5541824532       11.7612260146
  S        12.9126378940        6.4687579367        9.0761099406
  C        12.9686753828        9.5465903672        9.3183726935
  H        13.4392996182       10.4781019544        9.6387889079
  H        13.7180715368        9.0583918702        8.7777208142
  C        11.6734263737        9.7364564491        8.5819276847
  H        11.3911517974       10.8441018264        8.7814068842
  H        11.7667677825        9.5629842724        7.4954462594
  H        10.8351177280        9.1906237186        9.0519982363
  H        -2.7923925977       14.8309926349       16.4933178310
  C        -2.4945795282       13.8054659157       16.3500713605
  H        -3.4343687867       13.2616297478       16.4118197855
  C        -1.4964024456       13.4443490347       17.4603531921
  C        -1.8118498119       13.6122591491       14.9861102246
  C        -2.0152026856       13.9485007374       18.7979186363
  H        -1.3294098233       12.3932658761       17.4691241751
  H        -0.4651386523       13.8012765570       17.2137313518
  H        -0.7911266772       14.1081799482       14.9210598704
  H        -1.5490540920       12.5756225566       14.8711251000
  H        -2.4843719093       13.9698065534       14.1932673690
  C        -1.6493268443       12.9826927491       19.9990036870
  H        -3.0774976157       13.9368437327       18.7006778803
  H        -1.6953569341       14.9584617352       19.0208917908
  C        -1.9377880641       13.4705097117       21.4630643325
  H        -2.2847921437       12.1577784298       19.8965712794
  H        -0.6245902665       12.6602195090       19.8572291302
  C        -0.8741338011       12.9720643959       22.4474686677
  H        -2.9028670920       13.1392184422       21.8144233095
  H        -2.0055020201       14.5522843219       21.4234858872
  C         0.3132753138       13.9229995234       22.5970434762
  H        -1.3176941596       12.9373980192       23.4799044383
  H        -0.5535699979       11.9535530960       22.2763168784
  C         1.5255357329       13.2265188700       23.1273092180
  H         0.7143335960       14.2191544701       21.6146882755
  H         0.0833501387       14.8014519165       23.1900251038
  C         1.8642778097       11.8900897813       22.4762553856
  C         1.2310002980       12.5797838693       24.4124251646
  C         2.7010124030       14.2497997712       23.4095501872
  C         1.8323970350       10.8203376743       23.3546848558
  C         2.1040143894       11.4398140812       21.1623446252
  C         1.3588300610       11.1935588457       24.5503477566
  C         0.8548175845       13.1941095020       25.5452116945
  H         2.8511850320       14.9657582846       22.5693627444
  H         2.3962687130       15.0061785746       24.1617783479
  C         4.0336017228       13.5894354981       23.8980898386
  S         2.2940511950        9.3324709581       22.5696885806
  C         2.3672988491       10.1149667011       21.0677519664
  H         2.1836335133       12.0893792686       20.2647907625
  C         1.0188962451       10.5872075391       25.6675277658
  H         0.6855172424       14.2855710378       25.4912794532
  C         0.5385396125       12.5857905107       26.7151365567
  H         4.2622715467       12.9205178121       23.0912009070
  H         3.9127634041       12.9182710371       24.7139450014
  C         5.1611615696       14.5914864735       24.2562344680
  C         2.8257173501        9.4439322985       19.8086737678
  C         0.6054437811       11.2485346883       26.8356277915
  H         0.9294710627        9.5359953414       25.7579047680
  C         0.0554241535       12.9926971085       27.9154177012
  H         5.6787913660       14.0746838276       25.0567949604
  H         4.7734005088       15.4606438639       24.7330553311
  C         6.1424452886       14.8607927432       23.1624655257
  C         2.8646569688        8.0647938340       19.5394800425
  C         3.3564312050       10.3054878558       18.6805810990
  C         0.1534337685       10.5664064134       28.1548905988
  C        -0.1533790231       11.9361405734       28.7677036037
  S        -0.4328960585       14.5145913087       28.5893296447
  H         6.6977237771       15.7669101749       23.2535292537
  H         5.6314488344       15.0475653895       22.2592777198
  C         7.0533586185       13.6884188361       22.9952608342
  N         2.6738563987        7.0307711049       20.4398481066
  C         3.1603811454        7.5428708799       18.2656650890
  C         3.6650323169        9.7503801093       17.4664240469
  H         3.4896560754       11.3677942477       18.8297453252
  C         1.1855363514        9.8720507893       28.9307516369
  C        -1.1931400664        9.7951056893       27.9844820391
  C        -0.5935027751       12.4354921631       30.0363392957
  C        -0.8253461617       13.7815476263       30.0995830888
  H         7.5159153584       13.6040047223       23.9704270355
  H         6.4975721980       12.8019805331       23.0102132772
  C         8.0539507169       13.6258255420       21.7456309567
  S         2.7585567682        5.5521458101       19.6348915397
  N         3.1550427673        6.1195105758       18.2235029249
  C         3.5461964384        8.2964767039       17.1829918847
  H         4.1763779302       10.3550193158       16.7422023206
  H         1.3931706945        8.9376788374       28.4441103585
  H         0.9183874437        9.6023167007       29.9539908641
  C         2.4940208281       10.5868377713       29.1911265881
  H        -0.9861178326        8.9080912756       27.3834579527
  H        -1.4608476239        9.3705191395       28.9274658030
  C        -2.3862159876       10.6061578927       27.4834874373
  H        -0.8176605905       11.6841220440       30.7789401788
  C        -1.2773685002       14.5283837735       31.3297978702
  H         8.6798609687       12.7378963475       21.8844640692
  H         8.8350909020       14.4291404827       21.7565507328
  C         7.3407945930       13.7222327743       20.3692001269
  C         3.8820385309        7.6287351050       15.9903070839
  H         2.7683670365       11.0369629481       28.3243019408
  H         2.2612794113       11.4501810737       29.8327602949
  C         3.5290893828        9.6663060440       29.8387397158
  H        -2.1318313927       11.1914773973       26.5906141497
  H        -2.7069602097       11.2792264896       28.2004145279
  C        -3.6021193205        9.7639924087       27.2324302159
  C        -1.2680183083       15.9059967490       31.4941514014
  C        -1.6451054583       13.7852148684       32.5494496929
  H         6.7861498551       12.8094068853       20.2855029425
  H         6.6609651910       14.5348916916       20.3372562987
  C         8.3619333674       13.8524939332       19.2049078439
  H         3.7605869792        6.5408298448       16.0357202984
  C         4.3432758398        7.9840611448       14.7579633381
  H         3.6505889796        8.7874915840       29.1145951033
  H         3.1666487845        9.1856177570       30.8162366276
  C         4.8635310206       10.3823727238       30.0733599928
  H        -3.5265137864        9.0898555286       26.4049112885
  H        -3.6993433969        9.1067731811       28.0895237580
  C        -4.9499260596       10.4832661487       26.9453291005
  N        -0.7492666341       16.9169953044       30.6449691461
  C        -1.5167225413       16.4790981006       32.7310191872
  C        -1.9649208885       14.3237284662       33.7685351436
  H        -1.5605837236       12.7086059467       32.5349104095
  H         8.9799611460       14.7653145412       19.3014302247
  H         8.8640763024       12.8759774898       19.0247445690
  H         7.8199822407       14.1526607929       18.3627432679
  S         4.6061324159        9.5833943257       14.2103218219
  C         4.4012362570        6.9686711836       13.7347734294
  H         5.2994130900       10.5766845390       29.1219689322
  H         4.7680437827       11.3003045672       30.5684287164
  C         6.0058003851        9.5734249525       30.8276374091
  H        -4.9746788863       11.3985759607       27.5484348701
  H        -5.7369361375        9.9676279868       27.5451684358
  C        -5.4134367476       10.5608431644       25.4871544343
  S        -0.7912575403       18.3099190187       31.3238368094
  N        -1.2896316581       17.8547512412       32.7596579234
  C        -1.9560069399       15.8285019404       33.8429777052
  H        -2.1034617618       13.7128567145       34.6070080849
  C         4.7396050058        8.8871123385       12.6113702672
  N         4.6442149367        7.5407725464       12.5397762482
  O         4.1360612765        5.7635051367       13.9584114819
  H         5.6032447669        9.2033755925       31.7986843421
  H         6.8629525476       10.2635617369       31.0335034705
  C         6.4662324223        8.4157904563       29.9573090191
  H        -4.5375391135       11.0019492211       25.0515666834
  H        -5.3018178137        9.5193840277       25.1087207190
  C        -6.7783290532       11.1779695639       25.2452317316
  C        -2.2256483043       16.5617502603       35.0226197417
  S         5.1354317835        9.7826173837       11.0888630094
  C         4.6750513940        6.7911200596       11.3041046000
  H         6.0356484560        8.5047781481       28.9489693447
  H         7.5411712206        8.5767235375       29.7619711721
  C         6.1212566692        7.0277193729       30.5719359202
  H        -6.8896193412       11.3740670354       24.1447641821
  H        -6.8589008838       12.1114987889       25.8432983494
  C        -7.9217093980       10.3205815339       25.7331209760
  H        -2.0664057268       17.6591231642       35.0504002794
  C        -2.6791552755       16.1550671449       36.2456064700
  H         5.3387658142        7.2443714886       10.5457546695
  H         5.1747132313        5.8017504077       11.5196722188
  C         3.2802257142        6.4082277915       10.8839149917
  H         6.2321604042        6.3469705878       29.7840766458
  H         5.0599072505        7.1303879740       30.8817644640
  C         6.9609667129        6.5616659976       31.6962604138
  H        -7.5740790282        9.2684151925       25.9347437068
  H        -8.3838271229       10.8587056347       26.5774505268
  C        -9.0787387330       10.1370060987       24.7164296187
  S        -3.1956492870       14.6188584887       36.6742045983
  C        -2.8145271818       17.1465878221       37.3569930869
  H         3.1121548525        5.5096220258       10.2556190896
  H         2.7220185691        6.2960942552       11.8322121737
  H         2.8902428584        7.3539806717       10.4341639418
  H         6.9048776878        5.5080519470       31.7973252845
  H         6.7308964304        7.0957518746       32.6183366160
  H         8.0344394688        6.7032151193       31.6072198084
  H        -9.4259404538        9.1286054120       24.5594376624
  H        -8.8806956984       10.5647095229       23.7009016698
  H       -10.0359228126       10.5334018331       24.9964079242
  C        -3.4519664474       15.2340161261       38.3262350473
  N        -3.3373297915       16.5990573456       38.4397520448
  O        -2.4411599174       18.3193043908       37.2815311021
  S        -4.1119951710       14.2747253782       39.7470068735
  C        -3.5338188053       17.2394637548       39.7207944507
  H        -3.7740517595       18.2419657966       39.4192860386
  H        -4.5390652251       16.8579590997       40.1128869527
  C        -2.3546156431       17.1631157136       40.6669410368
  H        -2.4628526636       17.8442065359       41.4647956435
  H        -2.2442699964       16.2097089762       41.2397452626
  H        -1.4084850634       17.4166386678       40.1631594701
