352
 i =    91900, time =    91900.000, E =        25.1260192708
  H        10.7731010997        7.3023311436       31.4881512662
  C        11.4647884103        6.4517300565       31.7755021633
  H        12.4959472315        6.8897989908       31.8540170720
  C        11.7356020729        5.4333745699       30.7227483597
  C        10.8722055908        5.8583097473       33.0882509902
  C        10.6089362881        4.6643016483       30.1181235494
  H        12.2615336379        5.9535161216       29.9265624765
  H        12.4559049515        4.6909740018       31.0594235387
  H        10.9457599814        6.5378124550       33.9549621792
  H         9.8188594482        5.6183478753       32.9318716422
  H        11.2639080375        4.9341656527       33.3759548037
  C         9.8810471681        5.4692045696       29.0570059609
  H         9.9068344489        4.4253530724       30.9024428044
  H        11.0874326525        3.7456141794       29.7580015493
  C        10.5750104713        5.4314543764       27.7371768258
  H         8.8591188643        5.0806741181       28.9778711989
  H         9.5579170033        6.4952784898       29.3537076872
  C         9.6905373367        4.8778924289       26.6001499196
  H        11.4401501577        4.8170525876       27.7100278642
  H        10.8164439865        6.3633947072       27.4000786140
  C         8.4997960912        5.7419175909       26.2828188026
  H        10.2430579098        4.7394189112       25.7203343093
  H         9.4319047832        3.8736379472       26.9667342034
  C         7.4810382685        5.1090587277       25.3682734434
  H         7.9834229334        5.9895462011       27.2138877291
  H         8.8224727642        6.7123520420       25.9166777035
  C         6.9520589534        3.7756246006       25.9917332891
  C         8.0288558214        4.3365176685       24.2190420644
  C         6.2944532643        5.9938679409       24.9404139174
  C         7.4449018847        2.6771211454       25.3269376798
  C         6.3120101070        3.3751058534       27.2167009460
  C         8.0504190008        2.9879638743       24.1669181374
  C         8.5398895443        4.9647517446       23.0566282378
  H         5.7835117645        5.4488932930       24.2040621365
  H         6.6676989471        6.9019045767       24.4990533699
  C         5.2589676091        6.3053266107       26.1296780758
  S         7.2368774883        1.1708670988       26.1730599501
  C         6.3987609543        2.0552047950       27.4474964670
  H         5.8283373639        4.0734433558       27.8263372339
  C         8.4441829269        2.3553666307       23.0620397537
  H         8.5755385548        6.0146047380       23.1848743808
  C         9.0261508160        4.3092537849       21.9296276546
  H         5.5978512117        6.1851543950       27.1414152435
  H         5.0799743332        7.3488129805       26.2166076046
  C         3.9620472492        5.5947235663       25.8778806080
  C         5.8772247521        1.4400803548       28.7381039134
  C         8.9225276890        2.9666581173       21.8784191570
  H         8.3136768663        1.2806566833       23.0348131132
  C         9.4661609154        4.6709412828       20.6591197630
  H         4.1801443648        4.5298150423       25.8782975098
  H         3.6750410843        5.8924087458       24.8742518557
  C         2.8291872140        5.9684443513       26.7967772749
  C         6.0752125541        0.0712340306       29.1092193988
  C         5.4053031549        2.3280450244       29.8434558632
  C         9.2743522588        2.1927811867       20.6098568197
  C         9.5289659259        3.5824122496       19.8612045443
  S         9.6510607454        6.1493018809       19.9016631846
  H         1.9628385691        5.8006123884       26.2120082399
  H         2.8630610473        7.0393192642       27.1085940504
  C         2.9235087479        5.1112205585       28.0585849351
  N         6.3855057090       -0.9672939455       28.1591288162
  C         5.6709695353       -0.4850064529       30.3081129267
  C         5.1349661652        1.8291559379       31.1300616013
  H         5.2593461344        3.4118472028       29.6505198655
  C         8.0206634105        1.4105657667       20.0584635158
  C        10.4851409030        1.2845476271       20.9132160701
  C         9.7901205104        3.9856462786       18.5829570308
  C         9.8261860128        5.3413464050       18.4510432867
  H         3.1070635351        4.0491027625       27.7199106598
  H         3.7907574660        5.4207335526       28.6129861902
  C         1.6186140896        5.2032814229       28.8980108732
  S         6.4280337585       -2.4231431559       28.9462749573
  N         5.9342305678       -1.8562937220       30.4022851524
  C         5.2918291859        0.3509504552       31.4362420325
  H         4.6235490493        2.5104796982       31.8229548792
  H         7.6838984119        0.6454189635       20.6675994532
  H         8.2812746190        0.8998318811       19.1027695837
  C         6.8526732807        2.2309339415       19.6534360256
  H        10.8176356772        0.6060943016       20.1685158063
  H        10.0284185070        0.5927470928       21.5668074256
  C        11.7404764950        1.9544876203       21.4853079912
  H         9.9905899034        3.2971289904       17.7880560746
  C        10.1593452837        6.1720073597       17.1529430659
  H         1.1173299375        4.2203164771       29.0503912590
  H         0.8576714580        5.7630723669       28.3218445908
  C         1.8023807305        5.9459801679       30.2484795828
  C         4.9821667164       -0.2889414949       32.6593561964
  H         6.9748241571        3.0646353413       18.8610338948
  H         6.4982964345        2.8023348292       20.4733141874
  C         5.8391303977        1.3238645323       18.9479961041
  H        11.4443720333        2.4128294704       22.4043612170
  H        11.9801457147        2.7938786433       20.7886191216
  C        12.9736350886        1.2430808879       21.5838523591
  C        10.1497950204        7.5743928999       17.0096059944
  C        10.5211153098        5.3726769453       15.9498519904
  H         2.6597409764        6.6599579202       30.2538982328
  H         0.9506149556        6.4617864150       30.6290367560
  C         2.2279925640        4.9290141707       31.2524957036
  H         5.1960300817       -1.3825866878       32.7046112869
  C         4.6553432363        0.1822117770       33.9425856257
  H         5.5046464746        0.6124703552       19.6800840819
  H         6.3182411831        0.6802255234       18.1956709114
  C         4.6220416095        2.1165412320       18.4029209018
  H        12.7371927427        0.3471828270       22.1934378749
  H        13.2856222593        0.8323881428       20.6204336526
  C        14.0801885976        2.1711580941       22.1261104052
  N         9.8051367685        8.5073890515       17.9564560427
  C        10.4853145638        8.2145920699       15.8110342267
  C        10.7345897367        6.0020098063       14.6996865657
  H        10.4527755043        4.2676345208       16.0538701974
  H         2.2712380796        5.4480141099       32.2676850035
  H         1.5818398620        3.9937850597       31.1844837324
  H         3.2430956263        4.6932750960       31.0994772350
  S         4.5748770059        1.8814248390       34.4762021293
  C         4.4393874964       -0.7914028475       34.9796577693
  H         4.4876040578        2.9525048987       19.0209388887
  H         4.8356628383        2.4215025848       17.3786140818
  C         3.2904970979        1.2716536388       18.3764972352
  H        13.7181321442        2.9396340389       22.8075024313
  H        14.4304676587        2.7021374084       21.2405695574
  C        15.1418773606        1.3638909217       22.8196471377
  S         9.9541037324       10.0319659646       17.4744951219
  N        10.3649280047        9.6178065066       15.9419399979
  C        10.7725502164        7.5025890123       14.6207051766
  H        10.8815007009        5.3981949550       13.7825915177
  C         4.2907561126        1.2007209557       36.0153719165
  N         4.1262935771       -0.1129013861       36.1193436755
  O         4.5963605599       -2.0491690505       34.9667069963
  H         2.4892140402        1.8119004156       17.8767199561
  H         2.9836633531        1.0757684067       19.4185947239
  C         3.4327524381       -0.0539953378       17.5976668338
  H        14.5162989806        0.7156917736       23.5132558066
  H        15.6210087054        0.6823437567       22.0549031781
  C        16.0856132834        2.3293691694       23.5317386589
  C        11.0877134579        8.3168680056       13.4642598108
  S         3.9470205499        2.1459592998       37.4737792637
  C         4.0279845030       -0.7449088994       37.4174661601
  H         3.7422844383        0.2182755558       16.6099320161
  H         4.2047900058       -0.6186202002       18.0315253475
  C         2.1669411144       -0.9445262545       17.5138671792
  H        15.4580519010        2.9058001114       24.2031132670
  H        16.5428224536        3.0366916880       22.8910811818
  C        17.2334545263        1.5881929494       24.2311808499
  H        10.6753497418        9.2874833396       13.6304747996
  C        11.5757558553        8.1171386442       12.1942350842
  H         3.2915897918       -0.4159732756       38.1577529998
  H         3.5749125662       -1.7239675736       37.1543780285
  C         5.3791334050       -1.1412237162       38.0813779668
  H         1.3392350273       -0.2990907936       17.9523377657
  H         2.4797677739       -1.8742625147       18.1298149417
  C         1.7266724357       -1.3318910157       16.0674819852
  H        17.4739072667        2.0329554859       25.2292537007
  H        16.8051591832        0.6536828062       24.4910522340
  C        18.4772828294        1.5715707814       23.3917660660
  S        12.1767412918        6.5819806516       11.6959116146
  C        11.5987457663        9.1410387670       11.2275448612
  H         6.0644416041       -0.5484987445       37.4598898274
  H         5.3900814565       -0.8409835261       39.0812491931
  H         5.4691270655       -2.2179845946       38.0447756383
  H         2.3636065415       -2.1163261494       15.6637566432
  H         1.8169985422       -0.5044699875       15.3877215082
  H         0.7236302020       -1.7341187951       16.0553426580
  H        19.3337974324        1.2459249276       24.0067873516
  H        18.6970771421        2.5829205687       23.1351038488
  H        18.4539998125        0.8276860061       22.5460745936
  C        12.4676092788        7.3967574766       10.1535955138
  N        12.2344131143        8.7097931140       10.1045765564
  O        11.1645647895       10.2705781039       11.4817825021
  S        13.2319180622        6.5101228574        8.7501276572
  C        12.4055375639        9.5034746795        8.8886159823
  H        12.6439766389       10.5636354458        9.0806660837
  H        13.3031680193        9.0697447707        8.4137496186
  C        11.2932345015        9.3617984625        7.7846042146
  H        11.6893328060        8.7335429249        7.0371520892
  H        10.4243660588        8.8268464150        8.0866533209
  H        11.1049862811       10.3491533847        7.4304350936
  H        -3.5758707509       13.4726681004       16.2569075190
  C        -2.4637215931       13.6032988028       16.2130049024
  H        -1.9070411644       12.6807191622       16.1880502994
  C        -2.0425468002       14.4504570916       17.4060222504
  C        -2.1383183953       14.2773774413       14.8851545831
  C        -2.4770274704       14.0171458858       18.7558383306
  H        -0.9631250684       14.3234894834       17.4715063253
  H        -2.2919813317       15.4663097589       17.1747326265
  H        -2.9153498646       14.1631068795       14.1417928318
  H        -2.0455969113       15.3047488539       14.9602076612
  H        -1.2561029585       13.8817407027       14.4594635999
  C        -1.3885546703       13.8638141512       19.8535443549
  H        -2.9051210415       12.9971915239       18.5242977514
  H        -3.3318932018       14.5241218280       19.0975994253
  C        -2.0004869045       13.5507029936       21.2266610067
  H        -0.6908524391       12.9895870995       19.6457451427
  H        -0.7178337988       14.6853222610       19.9995871708
  C        -0.9631487388       12.8626376335       22.1846749725
  H        -2.7913834889       12.8065955554       21.1426866760
  H        -2.4120566266       14.4522913225       21.7162437143
  C         0.2382219959       13.7211959560       22.3553744427
  H        -1.4277129439       12.6776926445       23.1822850046
  H        -0.7405978263       11.9126792515       21.8512404074
  C         1.4058636825       13.1234431075       23.2454760069
  H         0.6791884763       14.0386052293       21.4516112404
  H         0.1297569353       14.4626115924       23.0902422761
  C         1.8077467708       11.7166047629       22.6514067973
  C         1.0858941992       12.3077401197       24.5005794241
  C         2.6398168214       13.9935669131       23.2874767034
  C         1.7274412743       10.6271820205       23.5025486118
  C         2.2392872351       11.2585874530       21.3928499552
  C         1.1628385468       11.0029866151       24.6709933554
  C         0.5391939534       13.0263388752       25.6116110105
  H         2.7956211223       14.3809206466       22.3201353072
  H         2.4659487131       14.8248116268       23.9429812554
  C         3.8874862178       13.2942198599       23.7992719390
  S         2.1880912583        9.1212680554       22.7583749742
  C         2.4446910229        9.9230320076       21.2687689423
  H         2.2268031217       11.9144441776       20.5025256741
  C         0.5769178733       10.3953028597       25.7516778459
  H         0.4771281058       14.0985429410       25.7410750072
  C         0.1194179893       12.3959669419       26.7412694024
  H         4.1919182663       12.4998739323       23.1692569046
  H         3.7441518609       12.9921725800       24.8539976140
  C         5.0563863185       14.3079908160       23.8430897447
  C         2.8982582434        9.2392515145       19.9719260479
  C         0.0458359473       11.0425519121       26.8808629438
  H         0.4952646941        9.3311001393       25.9024550415
  C        -0.4055006506       12.7432166291       27.9615700191
  H         5.7029778806       14.1978997162       24.7281455686
  H         4.6530988912       15.2344771918       24.1218006177
  C         5.9360381724       14.4208605230       22.6100366978
  C         2.9426852073        7.8656505352       19.6766618753
  C         3.2523373555       10.1078723136       18.8178475837
  C        -0.4039548565       10.2659130603       28.0303201059
  C        -0.7102536692       11.6426026724       28.7331041569
  S        -0.6987521340       14.2428168489       28.8411936427
  H         6.5294893008       15.3188594682       22.7289358791
  H         5.3524924720       14.6341712929       21.7534464777
  C         6.7422178241       13.1078783498       22.3453502129
  N         2.3120110998        6.9375122722       20.5752524695
  C         3.1555117595        7.3494089099       18.4351942156
  C         3.5356681017        9.5989694071       17.5055601202
  H         3.3004017124       11.2078330238       18.9618750982
  C         0.6297238399        9.3904049753       28.8191844644
  C        -1.6338152647        9.4649330253       27.7390671360
  C        -1.0926654266       11.9658718907       30.0137172571
  C        -1.1623693761       13.3047461637       30.2477931998
  H         7.4633068203       13.0237003012       23.2186771080
  H         6.1412108558       12.2117268050       22.1775785008
  C         7.6970664507       13.2932796165       21.1636048978
  S         2.3204194758        5.4531361742       19.9419875789
  N         2.9157387068        5.9386933768       18.4361109607
  C         3.5203765507        8.1467823099       17.3461812472
  H         3.6993788201       10.2933234885       16.5903442931
  H         0.8932321665        8.5729620319       28.1471108123
  H         0.2636270774        8.7563105676       29.6069284689
  C         1.8210695614       10.2077965512       29.2672287510
  H        -1.3524926295        8.6565996623       27.0179888631
  H        -1.9194757805        8.8690620173       28.6161366403
  C        -2.8792230221       10.2898239414       27.3778848279
  H        -1.2544595042       11.1110380846       30.6879565480
  C        -1.4272027232       13.9616327244       31.5773860430
  H         8.4277700611       12.5288766961       21.4157696085
  H         8.2127594705       14.2857627215       21.0690390507
  C         7.0305323181       13.2527213140       19.7755190463
  C         3.5921254668        7.4685413218       16.0987765625
  H         2.1143459575       10.7490514875       28.4265597654
  H         1.4241912625       10.8656843336       30.0387230672
  C         3.0150342059        9.4535893147       29.8787223226
  H        -2.6455198036       10.7957757320       26.3695843234
  H        -3.1183383221       11.1225018202       27.9721386457
  C        -4.1269409744        9.3827680819       27.4725184527
  C        -1.5272444946       15.3198098128       31.7844319432
  C        -1.8214073099       13.1352026545       32.7555292625
  H         6.6954977684       12.2044005811       19.6012246605
  H         6.1612934835       13.8963660005       19.8257458361
  C         8.0201320165       13.5892649848       18.6979724490
  H         3.5872542961        6.3638028451       16.1973034301
  C         3.9093451930        7.7899207724       14.8090554833
  H         3.2110672163        8.7250089203       29.1287823814
  H         2.6779812206        8.9234222014       30.7661259423
  C         4.1882023344       10.3969664474       30.0599049720
  H        -3.8452649446        8.5977717413       26.8092848772
  H        -4.1230619452        8.9528209811       28.4437220609
  C        -5.5232771972        9.9156787853       27.1590386934
  N        -1.2832586672       16.2821657835       30.8274300740
  C        -1.9156420695       15.8375800773       33.0211159434
  C        -2.2497398990       13.6438091033       33.9424471444
  H        -1.7031357215       12.0408421887       32.6725802533
  H         8.6195485588       12.7840737451       18.3698243773
  H         7.7610304913       14.1459627711       17.8247254864
  H         8.7624541616       14.3249695146       19.0700164295
  S         4.2340070291        9.3427965571       14.2270910414
  C         3.9466058168        6.7539163010       13.8068942878
  H         4.5078420918       10.7942004116       29.0693179354
  H         3.9501415813       11.2900694968       30.6489397417
  C         5.3391638987        9.7498562702       30.8141914232
  H        -5.7874980376       10.8078044558       27.6847905587
  H        -6.2835998050        9.2037125404       27.5125862419
  C        -5.7995814418       10.1016439612       25.6801679299
  S        -1.4814789140       17.7186209081       31.5519937414
  N        -2.0314035897       17.2312667656       32.9951559721
  C        -2.2511201045       15.0800489581       34.1685365213
  H        -2.5316210178       12.9481790810       34.7737874257
  C         4.4036046465        8.5931511115       12.6449279667
  N         4.2689900667        7.2810866046       12.6201032912
  O         3.6599467743        5.5471221151       13.9858160743
  H         5.0399286436        9.4815116863       31.8171530974
  H         6.0110696614       10.6039834386       30.9281081564
  C         5.9830865100        8.6142683389       29.9951853235
  H        -4.9110537944       10.4116379866       25.1833908897
  H        -6.1994180087        9.2042111788       25.2948404944
  C        -6.8490422500       11.1953317785       25.3336346627
  C        -2.5204651537       15.7300814335       35.4027408649
  S         4.8517743515        9.3191648243       11.1267336305
  C         4.2857843385        6.5062345228       11.3578313113
  H         5.7216996066        8.8787244726       28.9607594154
  H         7.0466413320        8.8683902406       30.0385282476
  C         5.6243859301        7.2209907530       30.4778542175
  H        -6.9988753626       11.1870715962       24.2449790677
  H        -6.3956390511       12.1637571222       25.5200591450
  C        -8.2289456622       11.1257320151       26.0528203030
  H        -2.1869829757       16.8091585580       35.4004752667
  C        -3.0030445817       15.3031238058       36.5981380439
  H         5.1641956861        6.7000795279       10.7336311414
  H         4.3954238188        5.4532594086       11.6139642195
  C         2.9255282975        6.6006436122       10.6903859889
  H         5.3535286936        6.5649313589       29.6079770262
  H         4.7117785688        7.3156762257       31.0778895614
  C         6.6876537566        6.5934158353       31.4241530254
  H        -8.1073455583       10.9391370966       27.1078943709
  H        -8.7766915822       12.0493017162       26.0235528500
  C        -9.0741351687        9.8503672865       25.6435738503
  S        -3.6707826139       13.8076170768       37.0576283425
  C        -3.0471217047       16.4197785183       37.6314303654
  H         2.1941307192        7.2187293019       11.2584718329
  H         2.9267656887        7.0150751135        9.6911799125
  H         2.4692871620        5.5947095099       10.7226246090
  H         6.6603585180        5.4651603379       31.3164022765
  H         6.4702436524        6.8504694326       32.4455716084
  H         7.7534880703        6.8115101490       31.2104326341
  H        -8.5673516469        8.9254326616       25.7944847390
  H        -9.2673615558        9.9674988245       24.5954704479
  H       -10.0533395373        9.8655790821       26.2142886992
  C        -3.8120906458       14.5665765721       38.6519274150
  N        -3.5887735542       15.8930257957       38.7532260205
  O        -2.6930359304       17.5739826082       37.4666373622
  S        -4.5258319229       13.6042705816       39.9057327618
  C        -3.7511340404       16.6147002370       39.9401540923
  H        -3.9248120147       17.6611801426       39.6774536638
  H        -4.5782838641       16.2590917807       40.4512475029
  C        -2.5270090422       16.5298140602       40.8578294560
  H        -1.6221253356       16.4397475161       40.3517466162
  H        -2.4334314139       17.4445416742       41.4144004635
  H        -2.5067060037       15.7719019143       41.5886886581
