352
 i =    46800, time =    46800.000, E =        24.9578977543
  H        11.5948054896        8.1816250344       32.6712060414
  C        11.5119692158        7.2100614537       32.1607133905
  H        12.4489238821        7.1144286217       31.6258305986
  C        10.4612523299        7.2606054617       31.0484050485
  C        11.1522373468        6.0512470655       33.1275755685
  C        10.9684906231        6.3191142608       30.0067705780
  H         9.5478576339        6.8752346478       31.5047152660
  H        10.1146452619        8.1993683891       30.6202980292
  H        10.9915742753        5.1614472710       32.5070488619
  H        12.0485015207        5.9817044970       33.8183406829
  H        10.2828878571        6.2640169438       33.6685314676
  C         9.8560517627        6.0542287911       28.9571777103
  H        11.3382408767        5.3809732697       30.4351840445
  H        11.8053201937        6.7614423780       29.4769566060
  C        10.5105303425        5.6192100548       27.6552507510
  H         9.2242269171        5.2095979439       29.2635455047
  H         9.2644413561        6.9341361294       28.6821551986
  C         9.7003190268        4.9041576888       26.6690632824
  H        11.3732679314        5.0263057050       27.8862546926
  H        11.0198979838        6.4532533534       27.1385096723
  C         8.5730278377        5.8575384076       26.2251853672
  H        10.4188038100        4.6137342517       25.8324540705
  H         9.3416404756        4.0225657038       27.1256887842
  C         7.4091983478        5.2201046046       25.4421524938
  H         8.0941216371        6.2472495016       27.1171593231
  H         8.8122826962        6.7802964472       25.6436694969
  C         7.0218360472        3.9217177766       26.1636060493
  C         7.9183083750        4.5173431438       24.3131324267
  C         6.1953411147        6.1311114777       25.1719026186
  C         7.3511417692        2.7898241796       25.4039341976
  C         6.4611418870        3.5075844676       27.3446625396
  C         7.8289979538        3.1684270101       24.2097696768
  C         8.3620626996        5.2215584615       23.1876410819
  H         6.3816051206        6.7673327708       24.3824078772
  H         5.8388082459        6.8152725417       26.0472642943
  C         4.9307377760        5.3879841001       24.7838534479
  S         6.9984948148        1.2590751750       26.1861006870
  C         6.3346181352        2.1245743467       27.4865007518
  H         6.1736594739        4.2611546622       28.0425643791
  C         8.1640274982        2.5710279256       23.0150433070
  H         8.5081053676        6.2130324520       23.1080737587
  C         8.7216248624        4.5886723618       21.9771932939
  H         5.1165334523        4.8438425365       23.8954892123
  H         4.7986158486        4.6316134849       25.4753490315
  C         3.7321430824        6.2456490885       24.6359441003
  C         5.8964448792        1.5526053728       28.8385140076
  C         8.6369219024        3.2447489400       21.8443110145
  H         7.9956335873        1.5166198461       22.8603035610
  C         9.1643367271        4.9733684586       20.7269316662
  H         3.1896351658        5.7118503176       23.9195984986
  H         3.9029496430        7.1771627805       24.1037121022
  C         2.8746898097        6.3078131540       25.8790186034
  C         5.8740044429        0.1632172321       29.1630220660
  C         5.4586771687        2.4754392585       29.8959054494
  C         8.8960176601        2.4735182731       20.6880555659
  C         9.2767844703        3.8094126536       19.9487476952
  S         9.5019953163        6.4025718435       19.8330145076
  H         2.1484914519        7.0828254552       25.8922749433
  H         3.6098974564        6.5484755771       26.6802268358
  C         2.2454783197        4.9729004134       26.2247647298
  N         6.3841461199       -0.8699968593       28.3577626640
  C         5.5261230118       -0.2903145337       30.4766149112
  C         5.0959859250        2.0060533457       31.1133241020
  H         5.5178752186        3.5068699472       29.7893795423
  C         7.7047202652        1.6737583750       20.0567949981
  C        10.1660277079        1.6008520733       21.0761950559
  C         9.5469904998        4.1171674749       18.5906627023
  C         9.6975855854        5.4743758247       18.3615481908
  H         1.6612065584        4.6162326428       25.3801576790
  H         2.9152519357        4.1607770238       26.4921828203
  C         1.2334270463        5.0475269835       27.4616482682
  S         6.4161470259       -2.2324381501       29.1685508032
  N         5.6554386402       -1.7198485879       30.4835848096
  C         5.0934133754        0.5741356023       31.4888019288
  H         4.8677406339        2.7994759513       31.7843877410
  H         7.3781190048        1.0564591824       20.8792951252
  H         8.2050689427        1.0663136896       19.2600035122
  C         6.5688873666        2.5787302124       19.6632627285
  H         9.9558678690        0.5896761713       20.8451932705
  H        10.4089862154        1.7001348837       22.0897864684
  C        11.4759290975        2.0354132464       20.3833784701
  H         9.6281415657        3.3649852557       17.8624147777
  C        10.0701051657        6.1432898270       17.0803549851
  H         0.6491912471        4.1412838046       27.6137557512
  H         0.5241844757        5.8018677918       27.1215033317
  C         1.8659690470        5.2938688152       28.8087068799
  C         4.8344382997        0.0100853318       32.7924283813
  H         6.8827756652        3.2501438037       18.7866462273
  H         6.3083437056        3.1404872264       20.5721905860
  C         5.2491231847        1.8915604607       19.4190586397
  H        11.5354793260        3.0694903671       20.5644941736
  H        11.3046164211        1.8209444474       19.2719114733
  C        12.7564487373        1.4336108278       20.9454865867
  C        10.0186063523        7.5198715408       16.7779422427
  C        10.4208445998        5.2965372728       15.9107648491
  H         2.4659491725        4.4345857477       29.1475343853
  H         2.6086744364        6.1010530319       28.7494947383
  C         0.9636223284        5.5252867914       29.9510565318
  H         5.1154990867       -1.0478111882       32.9033919180
  C         4.5415735537        0.6027570580       34.0190258549
  H         4.5753100174        2.2758036428       20.1901503420
  H         5.2584569945        0.8156955701       19.6640422606
  C         4.4890040251        2.2253773149       18.0956962495
  H        12.5173594318        1.0757704948       21.9653635027
  H        13.0037780205        0.5031706696       20.4151124010
  C        13.9742756329        2.2988304205       20.8587330673
  N         9.7189659887        8.5107151820       17.7426570628
  C        10.3526951113        8.0400545935       15.5857393674
  C        10.6546166833        5.7923811604       14.6246642995
  H        10.3897389885        4.2097726269       16.0370680758
  H         0.0557622944        4.9871563842       29.9458905281
  H         1.3554490436        5.4267260501       30.9565336691
  H         0.6096500895        6.5505994759       29.9691557429
  S         4.3639964687        2.1567300856       34.3765955738
  C         4.4005302274       -0.3898266349       35.1501883288
  H         4.2377357553        3.3084932515       17.8419174068
  H         5.1981295984        2.0754483858       17.2978293147
  C         3.2289172469        1.3735352915       17.8587479214
  H        13.6833796041        3.1720038062       20.2949087991
  H        14.7881952159        1.6289081045       20.4816188260
  C        14.4136426749        2.8348254852       22.2477550931
  S         9.8602293056        9.9625236970       16.9886943827
  N        10.3829239173        9.3893353843       15.5964965984
  C        10.6399408167        7.2873666439       14.4521062748
  H        10.7955364903        5.0988581841       13.8100075557
  C         4.0057010356        1.6008162958       36.0771731685
  N         3.9373781059        0.2575602548       36.2450172855
  O         4.5458190117       -1.6546608962       35.0621786240
  H         2.5645705354        2.0391026363       17.3010308212
  H         2.7330070488        1.2512443179       18.8163870731
  C         3.5601426758        0.1232948411       17.0459808167
  H        14.9886552078        3.6836653640       22.0837938108
  H        13.6506335589        3.3157281468       22.8147649913
  C        15.1698204023        1.8002989570       23.0748526747
  C        10.8705748367        8.0694773670       13.2546418905
  S         3.6310753314        2.6038857897       37.5543744256
  C         3.7170537975       -0.4204385010       37.4803147062
  H         3.9668351558        0.4194835446       16.1075253232
  H         4.3013462944       -0.4604709139       17.6638992169
  C         2.2088661887       -0.7316349981       16.7920426451
  H        15.0978448892        0.8871858225       22.5097571419
  H        14.6570162061        1.6239057438       23.9836230824
  C        16.6196543644        2.2521035566       23.2437401427
  H        10.3964796733        9.0110158644       13.2030514268
  C        11.3075974021        7.6204836496       12.0332740709
  H         2.9373823043        0.0582615586       38.0829111703
  H         3.4128678025       -1.4378626893       37.2886554992
  C         4.9694144288       -0.3554975063       38.3811345964
  H         2.5073993541       -1.5891381588       16.1344645225
  H         1.4335910529       -0.0915426761       16.2529351849
  C         1.6519916668       -1.2658274179       18.1267650801
  H        16.6608692381        3.2287262920       23.7140539390
  H        17.1243483493        1.4493224774       23.7914328891
  C        17.3594318382        2.4897069090       21.9182611058
  S        11.9914354071        6.0936406290       11.5783815225
  C        11.4406786962        8.7215641067       11.0331376196
  H         5.1118203835        0.5734022348       38.8733184830
  H         4.8127232358       -0.9415093274       39.2560421581
  H         5.9422486794       -0.5854219078       37.8660397491
  H         0.9468567568       -0.4557965810       18.6219669857
  H         2.4538053033       -1.5058094892       18.7906393662
  H         1.0643046232       -2.1597162757       18.0121550390
  H        17.0832661288        1.7642033443       21.2314389694
  H        18.4436869193        2.3002999525       22.0315228888
  H        17.1880963449        3.4093261431       21.4689610474
  C        12.1812733628        6.8767722464       10.0080949166
  N        12.0047648018        8.2441712810        9.9339574295
  O        11.1875830511        9.9067346205       11.2065324784
  S        12.8888438288        6.0476764630        8.5983214825
  C        12.0900822210        9.0379251179        8.7439370438
  H        12.4620719972       10.0205064787        8.9217742355
  H        12.8603584097        8.6269934239        8.1133971566
  C        10.7483539207        8.9941394108        7.9800293936
  H        10.1042721032        9.8639095819        8.1949840940
  H        10.9034578789        8.8569858845        6.8752691026
  H        10.1129227983        8.2255635251        8.4350671199
  H        -1.2613976980       13.2374133642       16.8300297417
  C        -1.8933038545       14.0667451935       16.4900642068
  H        -1.2168672639       14.7165949388       15.9313611281
  C        -2.6140141350       14.9065369632       17.5625795245
  C        -2.8202788270       13.6646840061       15.3511446380
  C        -3.2370072668       13.9861411366       18.6743490583
  H        -1.9364721536       15.6876326547       17.9181555119
  H        -3.4189425152       15.4744256424       17.0697140052
  H        -3.4107660357       12.7424027293       15.7777147869
  H        -3.5798974698       14.4489207287       15.2622058073
  H        -2.3557097571       13.5286973326       14.3908325527
  C        -2.1428707792       13.3191364900       19.6265404986
  H        -3.8390524173       13.1867580284       18.2761538849
  H        -3.8256927798       14.6792276880       19.2151592614
  C        -2.5268066848       13.4138214490       21.0954183574
  H        -2.1857498298       12.2755616841       19.3251438385
  H        -1.1991467241       13.7131554229       19.5671165256
  C        -1.5733401787       12.6847084605       22.0132945886
  H        -3.5614047294       12.9272437713       21.1849009555
  H        -2.7031342710       14.4482377899       21.4243109234
  C        -0.2685646973       13.5157031137       22.2938807640
  H        -2.0451833330       12.4748789193       22.9459606837
  H        -1.2765659786       11.8422106335       21.4115110850
  C         0.8509656800       12.7873766276       23.0283392610
  H         0.2433380147       13.8359175712       21.3908105167
  H        -0.5892508572       14.4171601621       22.7872670542
  C         1.2071729273       11.5096921042       22.3690952903
  C         0.4101232426       12.1076867522       24.2737580970
  C         2.1772041864       13.6188790537       23.1846496469
  C         0.9796169681       10.3806724733       23.2016957050
  C         1.7445719817       11.1078725706       21.1319908006
  C         0.4541698920       10.7436363377       24.3938053166
  C        -0.0291141279       12.8761607870       25.3823297830
  H         2.5870840698       13.9644525277       22.2189165432
  H         1.9873104400       14.5567929247       23.6314393811
  C         3.2907695213       12.7577460792       23.8960241252
  S         1.5156653453        8.8967686334       22.5350043864
  C         1.9555424040        9.7479646074       21.0706192489
  H         1.8400687556       11.8851449884       20.3466656373
  C        -0.0546430337       10.1632324436       25.5476764598
  H        -0.0910828577       13.9236129954       25.2700579121
  C        -0.3322012024       12.2787970717       26.5241669983
  H         3.6142338219       12.1431940391       23.0674124136
  H         2.9104591556       12.1667482599       24.6833678959
  C         4.4118521473       13.6524835488       24.4047566697
  C         2.5184529756        9.1590587372       19.8559572859
  C        -0.3723458783       10.9542517583       26.6501846150
  H        -0.0577259620        9.0870533376       25.6515901154
  C        -0.6370874852       12.7034760757       27.7744168635
  H         4.8853499557       13.1393412242       25.2302781458
  H         3.9257581688       14.5319166087       24.8403965190
  C         5.3530255552       14.1976541261       23.2629436180
  C         2.5586661696        7.8040851647       19.5551738414
  C         2.9425720813       10.0424191898       18.7671869666
  C        -0.6870738591       10.2836144102       27.9643841056
  C        -0.8577605375       11.6495846339       28.6595487552
  S        -0.8637054356       14.2490117446       28.5660411373
  H         5.9597442978       15.0786753580       23.6485002306
  H         4.8027298898       14.7024653794       22.4754045934
  C         6.3157734309       13.1925532167       22.7561511886
  N         2.1986807373        6.7520839706       20.4437980488
  C         2.9074189545        7.3461389197       18.2983277140
  C         3.3260264146        9.6187231529       17.5327423615
  H         3.0142698636       11.0776794070       18.9975481025
  C         0.4858030834        9.5474982550       28.7513407958
  C        -1.9092766066        9.3647477405       27.9601650163
  C        -1.2516780606       12.0562805779       29.8889898942
  C        -1.2623633205       13.3890618089       30.0838322625
  H         6.9939221987       12.7482729526       23.5463916586
  H         5.7714854607       12.3122864090       22.3857733356
  C         7.2488828245       13.7920585583       21.6479825806
  S         2.5283701124        5.3400110006       19.7769744179
  N         2.7851498173        5.9593724362       18.2738767985
  C         3.3347443148        8.1769120567       17.2891062333
  H         3.6339670950       10.3307261865       16.7532211070
  H         0.6363835400        8.6837859470       28.1002001616
  H         0.0514526817        9.2376355600       29.6752419181
  C         1.7374722279       10.3665305321       29.0059106851
  H        -1.7963543715        8.6526854630       27.1494492126
  H        -2.1650879449        8.8440258422       28.8977019577
  C        -3.1225615507       10.2169998670       27.6549572235
  H        -1.4995481974       11.2830789447       30.5665825623
  C        -1.5172432126       14.1419972827       31.3478925785
  H         8.3091034744       13.6100236936       21.8483324485
  H         7.1635477694       14.9018094815       21.7213923212
  C         7.0400023444       13.2972557782       20.2484392760
  C         3.5558792939        7.5084868385       16.0263072339
  H         2.0340377642       10.8649056099       28.1447491495
  H         1.5669482798       11.1258713004       29.7286794077
  C         2.7420184276        9.4040007201       29.6026599068
  H        -3.0261171909       10.7987504734       26.7621360564
  H        -3.4133347261       10.9499465521       28.4254560456
  C        -4.3811473029        9.3865508252       27.5993430148
  C        -1.7095945462       15.5413624761       31.4400533748
  C        -1.9618898940       13.2911295336       32.5112688027
  H         7.4916964906       14.0020628507       19.5828080235
  H         7.5567417625       12.3477452374       20.2431773877
  C         5.5459165693       13.1782551818       19.7075269876
  H         3.2215318126        6.5072753747       15.9956371154
  C         3.8371378117        7.9169932367       14.7430447396
  H         2.8852931389        8.5115054158       28.9997498518
  H         2.4197317478        9.1122499787       30.6616637577
  C         4.0559846547       10.1771911584       29.7343228917
  H        -4.2639686161        8.4481763323       27.0639071983
  H        -4.5845725503        9.0861241948       28.5820043537
  C        -5.5843126020       10.2664184472       27.1442377829
  N        -1.4029472878       16.5808140886       30.4925412059
  C        -2.0663767760       16.0437954340       32.6653200338
  C        -2.4032851000       13.8233007560       33.6852698630
  H        -1.8461399462       12.2054819942       32.4555298031
  H         5.2108312311       12.1774681782       19.9491774566
  H         4.8862947188       13.8769455945       20.1949388480
  H         5.3871229963       13.2726743805       18.6518207444
  S         4.1195409874        9.5115391654       14.2667626640
  C         3.9035499771        6.8300339060       13.6765342768
  H         4.3667510389       10.4902529239       28.7019472176
  H         3.8262600673       11.1467369476       30.2357872357
  C         5.1212094504        9.4968067669       30.5895495661
  H        -5.1918020236       11.1531846107       26.5367512489
  H        -6.0486713337       10.6824584328       28.0791792907
  C        -6.6414013257        9.5151717728       26.5268165948
  S        -1.6193374755       18.0118446865       31.2387809168
  N        -1.9472347715       17.4124771813       32.6780993717
  C        -2.3978436062       15.3184927574       33.8162322712
  H        -2.6167174188       13.1197562603       34.4647611972
  C         4.1442990410        8.8483844464       12.6020383289
  N         4.0937458980        7.5093236612       12.4974022626
  O         3.7490981531        5.6235365486       13.7896354030
  H         4.7101946826        9.2866795411       31.5489956201
  H         5.9606624339       10.1636137385       30.5965240940
  C         5.5674962978        8.1218484726       30.1475687490
  H        -6.2384958239        8.5615748941       26.1369514005
  H        -7.4256534590        9.1224445737       27.1572472675
  C        -7.1228409501       10.4200724112       25.4330245548
  C        -2.5794201162       16.1076366784       34.9954345124
  S         4.7360914747        9.6171810379       11.1547877722
  C         3.9351048562        6.7851499660       11.2540262692
  H         4.8309791988        7.6186677147       29.6334146580
  H         6.4442366491        8.2839651820       29.5231362853
  C         6.0140001956        7.2104239301       31.3862715874
  H        -6.2511987663       10.4914870552       24.7039447491
  H        -7.3666368939       11.4248742009       25.7989362519
  C        -8.4358801116        9.8244300188       24.7297826081
  H        -2.3569768183       17.1593444421       34.9457830617
  C        -2.8959308965       15.8249590709       36.3379111360
  H         4.5351044570        7.1635566827       10.4392600822
  H         4.3398428375        5.8318442077       11.4885975213
  C         2.4850336411        6.6916899291       10.8147513355
  H         6.3920923152        7.7553486371       32.2544385704
  H         6.9099794519        6.5862999131       31.0788239128
  C         4.9068252384        6.2208851028       31.6738545587
  H        -8.7067900553       10.3374675924       23.8257068385
  H        -8.2235519722        8.8144854914       24.3645427094
  C        -9.7357445147        9.8741073060       25.5929153751
  S        -3.4812472500       14.3299445167       36.8937459788
  C        -2.9003768488       16.9411484561       37.3599254929
  H         2.3208537114        7.6354026287       10.3111969610
  H         2.4539173712        5.8732606104       10.0203986625
  H         1.6643410376        6.5068747177       11.5294895882
  H         4.6550124744        5.7575254902       30.7534225679
  H         3.9897317729        6.6580371603       32.0251507282
  H         5.2069009463        5.2912723386       32.2221165484
  H        -9.5033419134        9.4925710821       26.5962511070
  H       -10.4378949978        9.2152076428       25.2197935279
  H       -10.1199555244       10.8898994666       25.5471743802
  C        -3.7659430386       15.1680329439       38.4258502441
  N        -3.5199258347       16.5019142653       38.4348435761
  O        -2.4820836977       18.1058781981       37.2034192566
  S        -4.2616243427       14.3984861525       39.8750862753
  C        -3.6954189306       17.3591457133       39.6483080933
  H        -3.6273019461       18.4145004088       39.3164716702
  H        -4.6947889969       17.2444622451       40.0244323779
  C        -2.5909509392       17.1963634580       40.6874180678
  H        -2.8015692675       17.8485586688       41.5410336955
  H        -2.7435112311       16.2675809706       41.2759187263
  H        -1.6026091196       17.5392401672       40.2075394353
