352
 i =     8400, time =     8400.000, E =        24.0425426237
  H        11.5636834659        6.9565110217       32.1951434176
  C        11.5036994520        5.8817612487       32.0860365476
  H        12.5800850016        5.6747338700       31.8415407927
  C        10.5181139465        5.5952042529       30.9303312517
  C        11.1723676951        5.2923507598       33.4830447170
  C        11.2292229380        6.0010208267       29.6315601839
  H        10.0898671540        4.5975609579       30.8168376168
  H         9.7277921181        6.3162075323       30.9690294347
  H        10.3107002824        5.6875767561       33.9607330686
  H        11.0719365022        4.2269879014       33.3133348115
  H        11.9226806553        5.5590239865       34.2207174388
  C        10.1910146531        6.0559554831       28.5628158867
  H        11.9658423025        5.1707360059       29.4488654047
  H        11.8242050144        6.9388534430       29.8022883672
  C        10.7451975812        5.7904190844       27.1414592440
  H         9.3801799397        5.3006697009       28.7375181111
  H         9.7003943640        7.0314669059       28.5291391641
  C         9.6631573749        5.2212250483       26.2683311669
  H        11.5267771140        5.0060408681       27.2340003064
  H        11.1408454981        6.7583377903       26.8346349772
  C         8.4627565841        6.0675319559       25.9856706451
  H        10.0309541214        4.8200348262       25.3962584063
  H         9.3277860924        4.3307214567       26.7893084648
  C         7.2707147720        5.3286376182       25.3315894347
  H         8.0685651433        6.4875037542       26.8859941774
  H         8.7466944709        6.9229115299       25.3065514820
  C         6.9151433555        3.9478100503       25.9732649165
  C         7.6878584602        4.5695188605       24.1222147165
  C         6.0238177946        6.2026287339       25.2399527266
  C         7.1400260028        2.8230860756       25.2118290735
  C         6.4275752447        3.5601835850       27.2050561200
  C         7.6968675158        3.2205537210       24.0471858293
  C         8.1194211144        5.2986420782       22.9608767603
  H         6.2305693010        7.0840050993       24.6599548924
  H         5.7912281399        6.5193697903       26.2138622140
  C         4.7076869015        5.4753469127       24.7917807614
  S         6.7553794213        1.3237145523       26.0750798926
  C         6.2752534252        2.2174553774       27.4515488532
  H         6.2525116915        4.3164112840       27.9863654603
  C         8.1006126730        2.5815372366       22.8941730446
  H         8.3448158108        6.2981136613       23.0494061060
  C         8.4842505738        4.6486203951       21.8122813723
  H         4.7433835129        5.0310643039       23.7693628094
  H         4.5778118107        4.6543760409       25.5058390546
  C         3.5013715383        6.3780839484       24.7070667796
  C         5.7716008515        1.5228808698       28.6946493636
  C         8.5278365650        3.2907860640       21.7615723549
  H         8.0384850427        1.5611725284       22.9627062421
  C         9.0090480112        4.9588203034       20.5864708736
  H         2.7838802385        5.9499411417       23.9585009032
  H         3.7022525855        7.3661316197       24.3245836276
  C         2.9002169945        6.5670656982       26.0921659065
  C         5.6747893534        0.0955287250       28.9202542012
  C         5.4808681592        2.3364812623       29.8482622944
  C         8.9291548371        2.5527960537       20.5173790137
  C         9.2457821589        3.8672707911       19.7342036733
  S         9.2630716880        6.4926580347       19.7820406221
  H         2.1732919131        7.2848939675       25.9377373882
  H         3.7289577016        6.9386001453       26.7673606611
  C         2.1816927753        5.3100816056       26.6628352351
  N         5.8893956218       -0.8975233548       27.9581743920
  C         5.5237913777       -0.4515261754       30.1628745211
  C         5.0986062402        1.7814190471       31.0374028671
  H         5.4608887800        3.4164817010       29.7175095014
  C         7.8010305764        1.6653048764       19.9595881427
  C        10.1197611953        1.6547074296       20.9547910121
  C         9.6886466321        4.2364466056       18.4473724183
  C         9.7230501161        5.6333639834       18.3405797368
  H         1.6176417658        4.9215788918       25.8415400956
  H         2.9249632701        4.6660520437       26.9898437868
  C         1.2573710718        5.5271409776       27.8709520633
  S         6.0397239721       -2.3438597283       28.7333882929
  N         5.7927268584       -1.8809217372       30.1916315345
  C         5.3509060600        0.3389750201       31.2998429200
  H         4.8266128050        2.4229572181       31.8844072832
  H         7.5039860595        1.0713848737       20.7926467741
  H         8.1083627161        1.0729361287       19.1223788832
  C         6.6198580243        2.4338820273       19.4804680442
  H        10.4530398429        1.1658905857       20.0631440606
  H         9.7179571919        0.9186636933       21.6040330126
  C        11.2914546198        2.5142993491       21.6387882185
  H         9.8532593911        3.5102643904       17.6680490771
  C        10.1168437401        6.3633290653       17.0838779474
  H         0.5667877704        4.6884781485       28.0509336605
  H         0.7075749959        6.4547896866       27.7117625102
  C         2.0598474008        5.6434930679       29.1594873511
  C         5.1928052243       -0.3296517595       32.5500717485
  H         6.9607924288        3.1570883988       18.7725383453
  H         6.2928495795        3.0533940074       20.3749423284
  C         5.4725787001        1.5381251309       19.0235052427
  H        10.9899946543        3.2339015153       22.4578927057
  H        11.6449452973        3.0995083370       20.7967557485
  C        12.5482254589        1.6194888877       22.0517353067
  C        10.1033590434        7.7598037337       16.8620658660
  C        10.3524983856        5.5665596537       15.8161206465
  H         2.5168026360        4.6718380893       29.3708675625
  H         2.7484404207        6.5139265857       29.1237788692
  C         1.1878139406        5.8648570285       30.3961094383
  H         5.4693072735       -1.3651322621       32.4899893644
  C         4.8401412646        0.0287466092       33.7958380730
  H         5.1847974803        0.9539033764       19.8655647108
  H         5.8604696304        0.9439652614       18.1757027694
  C         4.3493881511        2.3939956810       18.3608730982
  H        12.2832367014        0.8072210715       22.7074784156
  H        13.0277874388        1.1209950519       21.1977788612
  C        13.5218799244        2.4918911475       22.8966874257
  N         9.9221377352        8.6879493888       17.8810874974
  C        10.3550839440        8.3389816732       15.6229673337
  C        10.5604118880        6.1615536043       14.5743486846
  H        10.4819549109        4.5193625597       15.9544884257
  H         1.6662529416        6.6705401894       30.8783793121
  H         0.0858228755        6.0281095940       30.2113821660
  H         1.2848367788        4.9398001226       30.9728875743
  S         4.4509854908        1.5624132991       34.3866232578
  C         4.8740611038       -1.0339329014       34.8076131840
  H         4.2419776953        3.3069894591       18.8443903682
  H         4.5183091935        2.8473909770       17.4008772825
  C         3.0537290313        1.6132658980       18.3709870488
  H        12.9400221094        3.0343998781       23.6274803891
  H        13.9718691682        3.2729731879       22.2296857085
  C        14.6994066938        1.7095393407       23.5879142609
  S        10.0778539411       10.1625488570       17.1855483263
  N        10.4229597048        9.7359145159       15.6488913777
  C        10.6422929797        7.6285723461       14.4441918910
  H        10.7543698198        5.5667827883       13.6767819133
  C         4.2951279730        0.8106383445       35.9480481984
  N         4.4770690087       -0.5382516365       35.9562824559
  O         5.1725580537       -2.1753693932       34.5103336343
  H         2.1529743439        2.2302203079       18.3226508093
  H         2.9280467503        1.0246698880       19.3654073371
  C         2.8761451949        0.4617550634       17.4137091613
  H        14.7642661803        2.2511772367       24.4795314717
  H        14.2790598846        0.7802138467       23.8990504328
  C        15.9522094116        1.5522998130       22.7244222173
  C        10.8610305861        8.4111897683       13.2726450854
  S         3.7560358642        1.5725794978       37.4527411595
  C         4.4816992219       -1.3253547244       37.1922593027
  H         1.7844382577        0.2641558977       17.2851356854
  H         3.2752115419        0.5947518214       16.3610514115
  C         3.3324148841       -0.9045470560       17.9905278950
  H        15.7610654104        2.2321274263       21.9886868532
  H        15.8556903312        0.5688338098       22.1280407841
  C        17.2403597152        1.5885477062       23.6177343905
  H        10.3554172759        9.3420006117       13.3259193379
  C        11.4780908637        8.1066778956       12.0711999059
  H         3.8050637209       -0.9665756506       38.0198782755
  H         4.1375927689       -2.3406450780       36.9472130848
  C         5.8830532159       -1.5173992247       37.7225138891
  H         3.0858617826       -0.9541261182       19.0335594583
  H         4.4188606607       -0.9246345584       17.8808469051
  C         2.5780506422       -2.0573078136       17.4158832343
  H        16.9514112661        2.0889852518       24.5466315586
  H        17.3669934504        0.5350767431       23.9346282144
  C        18.4441456577        2.0289125569       22.8731363829
  S        12.0984126941        6.5978216881       11.6173381666
  C        11.5522018986        9.1719404553       11.0151606792
  H         6.2214327724       -0.5741114990       37.8861296017
  H         5.8910633112       -2.0945590029       38.6236897669
  H         6.5910295308       -2.0449527615       37.0415100991
  H         1.6274468964       -2.3523016269       17.8336832296
  H         3.1810609014       -2.9707111194       17.5220226250
  H         2.3115011232       -2.0547949100       16.3701754060
  H        19.3574902373        1.8940397581       23.4716688058
  H        18.2187439129        3.0319783337       22.4188988229
  H        18.5447079974        1.3858018090       21.9692828348
  C        12.3295370845        7.2535064580       10.0053784402
  N        12.0389211921        8.5676186582        9.9164347481
  O        11.0482338200       10.2901132447       11.1913689261
  S        12.9230153324        6.2254546698        8.6463128796
  C        11.9699966781        9.2616786351        8.7446340112
  H        11.7896879150       10.3458286243        8.9112492041
  H        12.9557558136        9.0869622893        8.2671179724
  C        10.8988347780        8.6899254290        7.8406468993
  H         9.9384027850        9.1336631995        8.1297031596
  H        11.0558336957        8.8420280158        6.7847904942
  H        10.6815138412        7.5828243357        7.8900858104
  H        -2.7619297097       15.2487253321       16.3014766390
  C        -2.8167761211       14.2193016443       16.3657673501
  H        -3.7796771888       13.7821293037       16.6864993704
  C        -1.7470777136       13.9314859685       17.4321623296
  C        -2.4728056979       13.6644011220       15.0060255431
  C        -2.4432107552       13.6745177915       18.8209085547
  H        -1.1969315305       13.1321979619       16.9740148566
  H        -1.0564958180       14.7702320290       17.5798146426
  H        -2.4831933488       12.5655769876       15.1373940883
  H        -3.1343433370       13.9531365337       14.1848622664
  H        -1.4721733725       14.0128212986       14.7300033386
  C        -1.3888387502       13.3370314237       19.8866613100
  H        -3.3490556650       13.0143003140       18.7339638893
  H        -2.7624461966       14.6406189526       19.0794178287
  C        -1.9022985715       13.5443184146       21.2531994398
  H        -0.8632390210       12.3584952088       19.7301106428
  H        -0.6125212503       14.0708407942       19.8325739441
  C        -1.0268475039       12.7893393829       22.1921142055
  H        -2.9271293521       13.1668860801       21.3616893483
  H        -2.0084864269       14.6337346581       21.4537755466
  C         0.2516745776       13.6033469482       22.4679357458
  H        -1.5707224428       12.6625104565       23.1091187760
  H        -0.7641558230       11.7934757612       21.8203476801
  C         1.2664987944       12.8612544127       23.2868065562
  H         0.7280995150       13.9437578301       21.5095823270
  H        -0.1585539794       14.5048541784       23.0904530562
  C         1.5924626384       11.5321303409       22.5804266988
  C         0.8019503076       12.0826255411       24.4785613720
  C         2.4574019192       13.8169656172       23.5000188750
  C         1.3349040395       10.4312826379       23.3373963802
  C         2.2012820741       11.1716968848       21.4201885767
  C         0.8525813856       10.7677874859       24.5762800119
  C         0.3082337897       12.7582910688       25.5533330191
  H         2.7940365258       14.2611248774       22.6011873915
  H         2.1405713589       14.7127130799       24.0831961779
  C         3.7605334004       13.2941789312       24.1056796324
  S         1.6633930825        8.9071778321       22.5914296542
  C         2.2088250810        9.8416535774       21.2025817825
  H         2.5234367213       11.9463296347       20.7198874953
  C         0.2984410448       10.1629531313       25.6892885863
  H         0.4186614987       13.8756535859       25.5138536591
  C        -0.2309031778       12.2203293219       26.6960406924
  H         4.0204116568       12.3792652296       23.5399035943
  H         3.5724446818       13.1200110582       25.1646517148
  C         4.9422037130       14.3419290344       24.0453803248
  C         2.5981559990        9.1890062927       19.8927815531
  C        -0.2835505914       10.8392528956       26.7616701481
  H         0.3014224340        9.0210247925       25.6412689854
  C        -0.6836785069       12.6571425653       27.9580232634
  H         5.7772734733       14.0119121586       24.6730395141
  H         4.5506743989       15.3614058302       24.3496607085
  C         5.5958358474       14.4674760340       22.5919537911
  C         2.6315923143        7.7876637789       19.5895687586
  C         3.0298586674       10.0496468066       18.7167884900
  C        -0.7918560375       10.2263424559       28.0292724024
  C        -1.0461989822       11.5840053792       28.7290049597
  S        -0.7735832129       14.1855484346       28.7575050686
  H         6.2711066200       15.3430185657       22.6120522535
  H         4.8931695066       14.7875250444       21.9038728483
  C         6.3922295424       13.2571591717       22.0885438932
  N         2.4419338482        6.8422560169       20.5951548619
  C         2.9029107152        7.2430370148       18.3175853635
  C         3.2670012637        9.4722556057       17.4456939302
  H         3.2486428259       11.0519666641       18.9119180239
  C         0.3070178085        9.4100553274       28.8577325257
  C        -2.1398887386        9.4979403011       27.7945461577
  C        -1.4872728536       12.0581284494       29.9729453351
  C        -1.4540690210       13.4235484740       30.1433544099
  H         7.0926469731       12.8869638198       22.8724848270
  H         5.8127291827       12.4626948690       21.8434839759
  C         7.2892101541       13.4586161086       20.8134190677
  S         2.3180276678        5.3900336472       19.8379469486
  N         2.8207319651        5.8189126131       18.3182226354
  C         3.2099731665        8.0289344603       17.2019588714
  H         3.5894611111       10.1669310265       16.6801595715
  H         0.6335313544        8.5941818274       28.2910826268
  H        -0.1999672553        9.0542284556       29.7295222520
  C         1.5183332960       10.2291181512       29.0905366215
  H        -1.8734547022        8.7429413451       27.0800191994
  H        -2.4811389957        9.0925953818       28.7229460479
  C        -3.3186808692       10.3391081046       27.1937269718
  H        -1.8097835557       11.2869826879       30.6819180206
  C        -1.6450323675       14.1642012120       31.4151754458
  H         7.7865348182       12.4768278761       20.7634303944
  H         7.9390341346       14.3064994892       20.9297928976
  C         6.4532261056       13.4937221334       19.5815004786
  C         3.2943705390        7.3805502131       15.8831571314
  H         2.0001537230       10.5210136268       28.1101380603
  H         1.2629776830       11.2050525178       29.5309143985
  C         2.5917188701        9.4741349650       29.8438417847
  H        -2.9270004558       10.9443867935       26.3206436187
  H        -3.6019264386       11.0680540083       27.9156108150
  C        -4.4871296862        9.4742434644       26.7135106457
  C        -1.5957287943       15.5529038138       31.6310315913
  C        -1.8077609558       13.3194838880       32.6348967238
  H         5.7415724982       12.7523963156       19.6182121041
  H         5.9733596817       14.4661350528       19.5080407932
  C         7.3073436549       13.4304248876       18.3082095743
  H         3.1908890736        6.3485316884       15.9496928748
  C         3.7216959918        7.7839190527       14.6399635420
  H         3.1789476496        8.8248669513       29.1090867899
  H         2.0070252490        8.8432834508       30.5108419544
  C         3.6336489913       10.3849868770       30.5851428768
  H        -4.2496980860        8.9370080333       25.8000360661
  H        -4.8011126590        8.7684984116       27.5144243235
  C        -5.7322237402       10.2607159422       26.3872990447
  N        -1.3875604715       16.5252996609       30.6089723192
  C        -1.9509772089       16.1045240760       32.8878321352
  C        -2.0808104220       13.9339022516       33.8836864916
  H        -1.8742947188       12.3051912789       32.6389376786
  H         6.6343535564       12.9644256948       17.5195191533
  H         7.5678152931       14.4329029683       17.9790438618
  H         8.2486555770       12.9071984772       18.3134844546
  S         4.2350338093        9.3792361668       14.1454127079
  C         3.7174311396        6.7505167024       13.5185303157
  H         3.7679071617       11.2196096417       29.8869877271
  H         3.3272340452       10.8986467446       31.4625172254
  C         5.0307619842        9.7156625819       30.6572096302
  H        -6.0402486879        9.9066897884       25.3982020502
  H        -5.5279555663       11.2972945520       26.3663657057
  C        -6.7742048485        9.9577612507       27.4157475787
  S        -1.2390711128       17.9739843495       31.3418937783
  N        -1.6958711467       17.5173776329       32.8370046412
  C        -2.1454472558       15.4176527861       34.0447344749
  H        -2.2942220693       13.2466580855       34.7412703767
  C         4.2496758558        8.6862450483       12.5335190646
  N         4.0709205776        7.3576828792       12.3658599764
  O         3.2574993840        5.6376724676       13.6912919243
  H         5.8563833323       10.2112127633       31.1887510619
  H         5.3918935487        9.8113953793       29.6508823019
  C         4.9053289545        8.2552552948       31.1259895845
  H        -6.8713916674        8.8824086232       27.5577389627
  H        -6.4762881362       10.5144944341       28.3252069615
  C        -8.1411151904       10.4993865228       27.0071284540
  C        -2.3532811571       16.1405481574       35.2189426125
  S         4.6307875279        9.6147338386       11.1097296520
  C         4.0124673118        6.6270903633       11.1424006053
  H         5.5209355971        8.1183825236       31.9846621215
  H         3.9040555828        8.0128171065       31.4711524252
  C         5.4270384743        7.1898323971       30.1862469958
  H        -8.0119184768       11.3799551277       26.4487186144
  H        -8.7741938986       10.8609771276       27.8830167932
  C        -8.9826006012        9.5147912373       26.2583434261
  H        -2.2211240322       17.2088131888       35.2613043177
  C        -2.8701018037       15.7655759815       36.4833757415
  H         4.7738669407        7.0518781023       10.4367050937
  H         4.4858449632        5.6401237301       11.3471671025
  C         2.6427804924        6.5804024104       10.4746878431
  H         5.1537305978        7.4600267947       29.1135480755
  H         4.8648963363        6.2898336328       30.4566745760
  C         6.9339661404        6.7686505937       30.1872255474
  H        -8.4982322223        8.9364096014       25.3972547518
  H        -8.9603495593        8.6503401228       26.9363813886
  C       -10.3605407506        9.8223062650       25.7858725533
  S        -3.3808028452       14.2363904517       37.0798766821
  C        -2.9953338424       16.8976868984       37.4558835113
  H         2.4736485192        7.2707102341        9.6263938912
  H         2.3340106044        5.5644952608       10.2685253181
  H         1.9063293688        6.8539993588       11.2346553656
  H         7.0634253624        6.1684003949       31.1172924617
  H         7.6643573158        7.5487195723       30.4280356500
  H         7.2710213507        6.1584916531       29.3207679166
  H       -11.1441433033        9.4215219487       26.4519162494
  H       -10.5319440357        9.3183943803       24.8370863176
  H       -10.5993990800       10.8982704663       25.6361908022
  C        -3.7601099800       15.1031139412       38.5478866116
  N        -3.6272444787       16.4404813053       38.5076555953
  O        -2.8581244873       18.0984248205       37.1809882987
  S        -4.3889495920       14.4155501515       40.1307152952
  C        -3.7339819058       17.2334504877       39.6773631231
  H        -3.8316975416       18.3086113417       39.4167913536
  H        -4.6923262938       16.9325337631       40.1810194398
  C        -2.4289277482       17.1339862251       40.5414339997
  H        -2.3087902381       18.0612433496       41.0403969090
  H        -2.5256086014       16.2675187788       41.2271867533
  H        -1.5134370658       17.1191399511       39.9549250585
