352
 i =    10000, time =    10000.000, E =        23.9495298960
  H        11.8866039573        6.7219100687       32.7718855768
  C        11.8403852728        5.6042182479       32.6639414103
  H        12.8559516774        5.2538419195       32.3775696480
  C        10.7158625580        5.2455193592       31.6497313756
  C        11.5842857220        5.1866630671       34.0825642667
  C        10.9944370276        5.7946310137       30.2557236181
  H        10.7225035108        4.1802759920       31.4842466651
  H         9.6305531815        5.4426645771       32.0508611453
  H        11.5632419544        5.9344993835       34.8564752833
  H        10.6305598692        4.6564718830       34.1672664935
  H        12.3194702627        4.4671877493       34.4708184405
  C         9.8388260426        5.3202097802       29.3033170760
  H        11.8916747010        5.2642983682       29.9590148046
  H        11.1542359472        6.9088895409       30.3057891324
  C        10.2282390941        5.3511371647       27.8311347424
  H         9.4120420326        4.3394928950       29.4893718804
  H         8.9878476183        6.0647386639       29.3020752409
  C         9.1700280653        4.7584886540       26.8551147511
  H        10.9811119728        4.5625649584       27.8177323141
  H        10.7451542195        6.2718807628       27.6284061266
  C         8.0684829543        5.7546808345       26.3711173249
  H         9.8039569907        4.5880144746       25.9702841494
  H         8.7513592969        3.8395715860       27.3136958123
  C         6.9287206141        4.9990107656       25.6220047471
  H         7.6172581107        6.1938721678       27.2563214004
  H         8.5807198445        6.4248632544       25.7077806952
  C         6.6227559448        3.5800624265       26.2216349375
  C         7.4795704855        4.1553448699       24.4581456270
  C         5.7158035001        5.9980375728       25.4260872166
  C         7.0708957467        2.4182532157       25.5353866351
  C         6.0458486659        3.2614304522       27.4519084849
  C         7.4503867183        2.7843315954       24.3057835633
  C         8.0183513275        4.7826480489       23.3473993267
  H         5.9914658454        6.8844873863       24.7335623250
  H         5.3846223988        6.4965408136       26.3664738693
  C         4.4302996150        5.3104966998       24.8551922091
  S         6.8405686519        0.9562421035       26.4984094452
  C         6.1576627589        1.8978206780       27.7786004286
  H         5.7582619689        4.0891740900       28.0727809394
  C         7.9390184022        2.2171446643       23.1466108450
  H         7.9732383263        5.8180786046       23.3630819309
  C         8.3984943402        4.2305983865       22.1597592499
  H         4.6095650778        5.0444230700       23.7606410110
  H         4.1776074657        4.4630308977       25.4607850518
  C         3.1930319790        6.1775951176       24.6983592272
  C         5.8177919223        1.2364712361       29.0968106780
  C         8.2945950347        2.9168108651       22.0323044504
  H         7.9193476809        1.0840551430       23.1043473470
  C         8.6832667421        4.6394221863       20.8632641566
  H         2.5896077672        5.6272192959       24.0165079391
  H         3.3975968053        7.1957547071       24.2050022449
  C         2.5105285812        6.2942137811       26.0775480812
  C         5.8794373386       -0.1479560782       29.3380585968
  C         5.3559234746        2.0977879473       30.1761030577
  C         8.5428607628        2.2285942080       20.7402789528
  C         8.8178564828        3.5986983819       20.0268915228
  S         9.1326133679        6.1548689545       20.1546954906
  H         1.6975620208        7.0323189906       25.7795993424
  H         3.1225722495        6.7186456553       26.9160268380
  C         1.8220494423        4.9482532429       26.5758434680
  N         6.2232497662       -1.1148031558       28.3735661574
  C         5.6305441616       -0.7091054516       30.5469530926
  C         5.1191266131        1.5570220063       31.4466011979
  H         5.1702183794        3.1768526440       30.0816111895
  C         7.2401533225        1.4956008555       20.1573551166
  C         9.8534544817        1.3480078970       20.8392433815
  C         9.3004050458        3.9928340887       18.7703352809
  C         9.5653878355        5.3783700173       18.5890942419
  H         1.1561035146        4.5234449023       25.8485703698
  H         2.5315517346        4.1393235397       26.8109746932
  C         0.9024085424        5.2698221271       27.7009028423
  S         6.3182650906       -2.5296039806       29.0393356937
  N         5.8501188255       -2.0370183424       30.5003404396
  C         5.2079821632        0.0849412502       31.6669828002
  H         4.7428447476        2.2546229260       32.2139504902
  H         6.8946880025        0.7990792686       20.9321774117
  H         7.5296584055        0.9335278016       19.2853005071
  C         6.0847441425        2.3387925251       19.7205469453
  H        10.2545740259        1.1076575033       19.8403756755
  H         9.8109057648        0.3824914731       21.3432185958
  C        11.0105323107        2.0149556585       21.5943856587
  H         9.4599019981        3.1795685572       18.0468675697
  C        10.0352742748        6.1020046580       17.3752509780
  H         0.2549441157        4.4113423281       27.8444326433
  H         0.2338776052        6.1233436956       27.4920661260
  C         1.5881202742        5.6792182965       29.0155737824
  C         4.9453359798       -0.5423690888       32.9015397337
  H         6.3198029880        3.1018294896       18.9879399517
  H         5.5608840606        2.8591809681       20.4804046732
  C         5.0971316210        1.3556397340       18.9874333844
  H        10.6672588652        2.0867110654       22.6055983050
  H        11.0286948803        3.0941100365       21.2747809524
  C        12.3474535024        1.3545770676       21.5696496599
  C        10.2106722840        7.5262617184       17.2609139635
  C        10.3243739151        5.4321380252       16.0751111303
  H         2.1269211723        4.8352137307       29.4940844593
  H         2.2691383268        6.4956322283       28.9117329468
  C         0.5232412185        5.9139524379       30.1057980497
  H         5.0346142507       -1.6274108901       32.9049076493
  C         4.6001856451       -0.0363950503       34.1307527526
  H         4.8258300644        0.5496776756       19.7267371709
  H         5.6727434705        0.7490372253       18.3438996619
  C         3.8658893716        1.9284284729       18.2530612992
  H        12.5430862735        0.8778593280       22.5458749633
  H        12.3307365672        0.6068234024       20.7916609965
  C        13.4896555437        2.3715686121       21.3445829278
  N         9.9714380062        8.4630744595       18.3184813540
  C        10.5097107449        8.2649106630       16.0871012714
  C        10.7621728386        6.0991354214       14.9210518688
  H        10.1982173267        4.4067551338       15.8967796180
  H        -0.0236862318        6.8724276911       29.9055280323
  H        -0.3024119206        5.2027756855       30.1487000501
  H         0.9736584969        5.7734249442       31.1264105788
  S         4.3721123187        1.5490567811       34.6389066629
  C         4.5509130818       -1.0277785074       35.1794685447
  H         3.6305738203        2.9257774612       18.4800699256
  H         4.1211615182        2.0030035209       17.1910102259
  C         2.5769778883        1.1968527395       18.4415153154
  H        13.2108259273        3.3277270943       20.7797561662
  H        14.2242597552        1.9236417678       20.7253548052
  C        14.1826986272        2.7427023691       22.6368930402
  S        10.2284128800        9.9500906907       17.8188441741
  N        10.4463099506        9.6348376647       16.2165188565
  C        10.8564391851        7.5552018191       14.8604052438
  H        11.1457508913        5.5367899794       14.0586932778
  C         4.0831024501        0.8421864617       36.2029781762
  N         4.0699296012       -0.4908601201       36.2881104155
  O         4.7126079920       -2.2339552096       34.9686798202
  H         1.8023977197        1.8906169617       18.5157895920
  H         2.5838082536        0.7359514633       19.4364095981
  C         2.1639155686        0.1974751582       17.3867044682
  H        14.8142709146        3.5794156862       22.2836040640
  H        13.3758051615        3.0769404790       23.2892546376
  C        14.8808894352        1.4500629851       23.3008353662
  C        11.1258407473        8.2915599034       13.6811586411
  S         3.4946849022        1.7071507162       37.6341824066
  C         3.8584188611       -1.3479378579       37.4866637543
  H         1.1091217025       -0.0189335837       17.5667782532
  H         2.1615286138        0.6315324848       16.3715710508
  C         2.9884603728       -1.0528928475       17.1495914257
  H        14.8617721503        0.6128910494       22.5581973670
  H        14.2410122716        1.2221415675       24.1652869837
  C        16.3456823367        1.7636047692       23.7961352128
  H        10.7669918706        9.3262041641       13.7029797351
  C        11.7689444977        8.0268724756       12.4621155723
  H         3.0872809589       -0.8638831482       38.0324282292
  H         3.5009727079       -2.2201773452       37.0074109260
  C         5.2443212629       -1.6298599074       38.2277405044
  H         4.0635122505       -0.8888965041       17.0138222833
  H         2.6693049296       -1.5817747604       16.2161048217
  C         2.8308522263       -2.0889116831       18.3265652303
  H        16.4849230363        2.6625323731       24.3624716828
  H        16.7547208881        1.0327030149       24.4573924042
  C        17.3318328961        1.7420118579       22.5946117553
  S        12.3199958946        6.4890551877       12.0281374060
  C        11.8818807714        9.0214457454       11.3336415537
  H         5.0902898430       -1.6749095417       39.3225974963
  H         5.7308067218       -2.6135995307       37.9085228952
  H         5.9537879885       -0.8523992226       38.0818825982
  H         3.6183680403       -2.7905160742       18.3820350121
  H         1.9525511690       -2.6701267194       18.1962130130
  H         2.7710799632       -1.6082260780       19.3004441007
  H        18.1729094231        2.3891912210       22.8428383882
  H        17.0354459982        2.1513711939       21.6146560294
  H        17.6977030073        0.7405656865       22.4407339878
  C        12.6925739150        7.2045601933       10.4208810013
  N        12.4356698387        8.4871592995       10.2234778749
  O        11.4960990867       10.1794525381       11.3304113751
  S        12.9448829803        6.2755822068        8.9908833843
  C        12.5892519232        9.2642757375        8.9708663321
  H        12.8083402121       10.2376872787        9.3117529715
  H        13.3811653028        8.7568594839        8.4606481509
  C        11.3289469419        9.3215257592        8.1130596237
  H        11.2035590505        8.3809915071        7.6389729944
  H        10.4503720209        9.5271119640        8.7877312498
  H        11.3273904706       10.1629716064        7.4594574172
  H        -3.6883114395       15.0094498254       16.1043200989
  C        -3.3569217396       13.9381907232       16.1826942799
  H        -4.0890116759       13.2444551514       16.5315978553
  C        -2.2550077752       13.8914052404       17.3631048233
  C        -2.9243924945       13.4164361105       14.8345214037
  C        -2.8210596105       13.6747471101       18.8038641784
  H        -1.4942320609       13.1500988212       17.1133881421
  H        -1.7775129009       14.8877389626       17.3630114624
  H        -3.6437818854       13.4669295393       13.9807464723
  H        -1.9150391299       13.7843636048       14.5685791790
  H        -2.9515153212       12.3413979709       15.0489170799
  C        -1.6939404136       13.6772750915       19.8465387336
  H        -3.4738484229       12.8127294437       18.8144549567
  H        -3.4559020328       14.5264818654       19.0641685660
  C        -2.3326308423       13.5641182762       21.2253522698
  H        -1.0435075744       12.8380084406       19.7017989711
  H        -1.1394677962       14.5793657142       19.7950067027
  C        -1.4514657873       12.8573079608       22.2161922315
  H        -3.2374087231       13.0802472688       21.1636781877
  H        -2.6474735461       14.6397765290       21.5538536828
  C        -0.1618101091       13.6927693039       22.5420655556
  H        -1.9202838389       12.6958870482       23.1661884394
  H        -1.1501519586       11.8875474696       21.9093991229
  C         0.9180815183       12.9007220915       23.3319567783
  H         0.3351097370       14.0569935047       21.6642626430
  H        -0.4431146850       14.5162399362       23.2162908408
  C         1.2858586309       11.5410131535       22.6834564506
  C         0.4817761927       12.2118571521       24.6077221575
  C         2.1340697195       13.7139761309       23.6588116338
  C         0.8496342515       10.4802469843       23.4351648901
  C         1.8067314792       11.1038507015       21.4687306050
  C         0.3576344881       10.8435939412       24.6445873762
  C         0.0512577943       12.9150540640       25.6976240955
  H         2.4600716278       14.1398440804       22.7091978028
  H         1.9885863308       14.5561737708       24.3139560653
  C         3.2893554191       12.9057924779       24.2728897841
  S         1.0941775285        8.9578869017       22.6185978425
  C         1.7958999930        9.7818905586       21.2669580926
  H         1.8911999742       11.8896486458       20.7918760254
  C        -0.0073290604       10.2320965553       25.8260796287
  H         0.1177397982       14.0217783484       25.6921719293
  C        -0.4357604529       12.2761311083       26.7871545484
  H         3.4793852524       11.9766627004       23.8728136987
  H         3.0699147284       12.5507895107       25.2832629788
  C         4.4882982661       13.7967924360       24.5177387347
  C         2.3235450498        9.0713818974       20.0782001431
  C        -0.3962618551       10.9381303592       26.9001421147
  H         0.1107672401        9.1674421433       25.8995994362
  C        -0.8637640302       12.6881517084       28.0258933190
  H         5.0575442663       13.4018792443       25.3879497533
  H         4.2730494959       14.7520805844       24.8849031875
  C         5.3788565753       14.0386779114       23.3124308523
  C         2.3412747920        7.6588736945       19.8511747134
  C         2.9039161072        9.8874528846       19.0224362360
  C        -0.7916705037       10.2650755692       28.2126677502
  C        -1.1329912658       11.6419643144       28.8483930949
  S        -1.0084561517       14.1990714026       28.8092107250
  H         6.0627901289       14.8182672251       23.7260469642
  H         4.6822760536       14.4299666382       22.5423675194
  C         6.2029685217       12.8223616065       22.7646980680
  N         1.9243617151        6.6391093749       20.7633169292
  C         2.7419270814        7.1603577108       18.6485610922
  C         3.2748104891        9.3547887509       17.8363385514
  H         3.0209923755       10.9971245022       19.0603368371
  C         0.3328951074        9.5214932891       28.9749969737
  C        -2.0056753325        9.4323825465       27.9283804677
  C        -1.3378340133       12.0866462696       30.1791830081
  C        -1.2972508059       13.4133851863       30.3412331136
  H         6.9258657807       12.4786205518       23.5132662848
  H         5.6905551149       11.8150451893       22.6669665498
  C         6.9473506528       13.1891744064       21.4312951500
  S         2.1274188548        5.2069954836       20.0487966390
  N         2.7098869740        5.7441940834       18.6023021743
  C         3.1154493885        7.9243955388       17.5363787119
  H         3.5427730033       10.0048765776       17.0659716040
  H         0.5810693405        8.6808707242       28.3797065700
  H        -0.1136586377        9.0599438525       29.8386308993
  C         1.5391859462       10.3667461377       29.3414046116
  H        -1.8098552025        8.7271313031       27.1229970994
  H        -2.1125115899        8.8250420872       28.8088275816
  C        -3.3091171161       10.2171011466       27.5475395507
  H        -1.6044324228       11.4023253201       30.9839175280
  C        -1.7098863721       14.2406670825       31.5327588357
  H         7.8124055614       12.5341610322       21.2527193397
  H         7.3971104426       14.1732483560       21.3702023642
  C         5.9955661168       13.2281692836       20.1851400462
  C         3.4832576000        7.2764871228       16.2976546173
  H         2.0115635283       10.7665977319       28.4650305481
  H         1.3164426173       11.3130468105       29.8625436489
  C         2.5444882881        9.5214990855       30.0816199121
  H        -3.1692556975       10.8962774383       26.6952999762
  H        -3.7178364226       10.7113779251       28.3880204792
  C        -4.3296949800        9.2642999972       27.0780098231
  C        -1.7456261436       15.6472400234       31.6441049977
  C        -1.9578483037       13.5474587308       32.8491392036
  H         5.4934539012       12.3061747542       19.9998216217
  H         5.1773717047       13.8895343099       20.3048141202
  C         6.7432520278       13.7218706358       18.9166056421
  H         3.4258556305        6.2402440068       16.2649752083
  C         3.7938354832        7.7249913509       15.0826975588
  H         2.8399624605        8.7323870608       29.3770433806
  H         2.1533012101        9.1720080975       31.0462111196
  C         3.7291951139       10.3061666192       30.6906895486
  H        -3.8426429763        8.7923881707       26.1846802056
  H        -4.5627733329        8.4623515418       27.7875651702
  C        -5.5636283103        9.9888980961       26.5788052370
  N        -1.4027943786       16.5075134717       30.5946035526
  C        -1.8937615377       16.3017991880       32.8560988043
  C        -2.2220802110       14.1549167206       34.0630233475
  H        -1.7644180235       12.4927972725       32.8725038944
  H         7.2367120515       12.8654239550       18.4899002409
  H         5.9088501015       14.0753674466       18.2977310776
  H         7.4516050604       14.5783616960       19.0551827408
  S         4.1326103863        9.4172220580       14.6441951173
  C         3.9700348146        6.7933829088       13.9629326216
  H         3.7450841501       11.3806169565       30.2659229651
  H         3.6312314942       10.2795154399       31.7447332856
  C         5.0181560055        9.5471389527       30.4757344713
  H        -5.8788181277        9.4338271972       25.7028001986
  H        -5.2606393533       10.9735870729       26.2486992387
  C        -6.6337203120       10.2453907292       27.5864131068
  S        -1.5598566590       18.0655200697       31.1101856896
  N        -1.9215477186       17.6926838165       32.6689105688
  C        -2.2521596955       15.6573256902       34.0586510224
  H        -2.4211398212       13.6050630123       34.9483919253
  C         4.3669992893        8.8098299192       13.0290159131
  N         4.4117831726        7.4261922518       12.8777797121
  O         3.9391901459        5.5977860026       14.1292335327
  H         5.8153650890       10.2777104694       30.7726608773
  H         5.0158920146        9.3613428746       29.3873537215
  C         5.1336303288        8.2464827120       31.2665656277
  H        -6.9044350359        9.3032824677       28.0359010519
  H        -6.2497327319       11.0520731943       28.2658902805
  C        -7.9481086930       10.7050765657       26.9661924786
  C        -2.4720418759       16.4182209693       35.2271059598
  S         4.7862070022        9.7507191177       11.6259218614
  C         4.5752120910        6.7605017079       11.5781069607
  H         5.8002604233        8.5223396655       32.1042574589
  H         4.1332701808        8.0673380873       31.7297310402
  C         5.6800203156        7.0365631588       30.4937035752
  H        -7.6783265353       11.4678937237       26.2292665090
  H        -8.3378899763       11.3743833864       27.7401697596
  C        -8.8856212039        9.5935449541       26.4563252707
  H        -2.2544346675       17.4634463657       35.3092098351
  C        -3.0109043553       16.1377902452       36.4589543028
  H         5.3263864542        7.1772555364       10.9360539104
  H         4.8318918700        5.6625896243       11.6894941404
  C         3.3267068200        6.6810981387       10.7294990382
  H         6.7710107407        7.0481362205       30.3856900450
  H         5.1612209414        7.0046888505       29.5335996674
  C         5.2676758615        5.7810196369       31.3688245299
  H        -8.3159092089        8.6650428852       26.5440622256
  H        -9.8452638992        9.5200983033       26.9426476222
  C        -9.1794450619        9.9101141278       25.0291183448
  S        -3.4642451567       14.6098744033       37.0686511983
  C        -3.2367938181       17.2765066344       37.4470459457
  H         2.5484973787        7.1337489430       11.3836112466
  H         3.5254005933        7.2221500187        9.8124805130
  H         2.9574834613        5.6535397788       10.6050325956
  H         5.4974795688        5.9601740020       32.4555055864
  H         5.8978615729        4.9568094225       30.9369913202
  H         4.1562640043        5.6234063269       31.1969175240
  H        -9.9105578314       10.6836096126       24.9174152357
  H        -9.5847270061        9.0530564057       24.4385420661
  H        -8.2805790033       10.2585146399       24.5314615458
  C        -3.9324125846       15.3868834603       38.5528450275
  N        -3.7909359868       16.7361265058       38.5975968726
  O        -2.8466659899       18.4530357467       37.2514386888
  S        -4.5673352146       14.5812403251       39.8904640411
  C        -3.8718814985       17.5508696406       39.8101319804
  H        -3.7615647723       18.5306014983       39.4975694451
  H        -4.8749708682       17.5235346303       40.2270153956
  C        -2.7079621303       17.1987245409       40.7446635997
  H        -1.7331708630       17.5713278023       40.3076075172
  H        -2.8298597862       17.7683521174       41.6827329568
  H        -2.7062529359       16.1356501346       40.9632179933
