352
 i =    30600, time =    30600.000, E =        25.1675809479
  H        11.6112078456        7.1715092020       32.8504057631
  C        11.6440868501        6.1692462568       32.4789226880
  H        12.6227160000        5.9621149104       32.0311958184
  C        10.5123554820        6.0463087325       31.5263987056
  C        11.6250679429        5.2753616440       33.7025227678
  C        10.9339543681        6.2942866395       30.0755697435
  H         9.9711976611        5.1302542631       31.5243621372
  H         9.7729061027        6.8150386515       31.7934731773
  H        11.8019195911        5.8656758101       34.5748783020
  H        10.6441186057        4.7450215807       33.7412371152
  H        12.3732775954        4.4848163282       33.6622372091
  C         9.9992101532        5.7563846264       29.0851184471
  H        11.9221081034        5.9164355273       29.9080893109
  H        10.9492579894        7.3622592134       29.9985671310
  C        10.4799268479        5.9152635700       27.7007060635
  H         9.9905442828        4.7051062229       29.2935855844
  H         8.9851673865        6.0618855174       29.3150138209
  C         9.6783594467        5.1844614426       26.6590300312
  H        11.5212823251        5.7918652258       27.7674876522
  H        10.4069482084        6.9415675645       27.4570231095
  C         8.3409435983        5.9525704023       26.3740998420
  H        10.1915811757        5.0043425831       25.7519342706
  H         9.4507413130        4.1181781674       26.8746932211
  C         7.2963758006        5.2170891096       25.6525783203
  H         7.9193394048        6.0639594087       27.3742249250
  H         8.5014814113        6.8594386054       25.8695262186
  C         7.0112909733        3.8964202562       26.4194424966
  C         7.7241247633        4.4161889091       24.4597497261
  C         6.0237111409        6.0969061788       25.4323946456
  C         7.0896623344        2.8018395322       25.6116826778
  C         6.4285342927        3.5885674232       27.6513249000
  C         7.6577770610        3.0813532668       24.4123852400
  C         8.1605368732        5.0266405359       23.3467226188
  H         6.2477841514        6.9207799824       24.8835739160
  H         5.8383297804        6.3840031851       26.4597612383
  C         4.7582548568        5.3857207752       24.9012300621
  S         6.6005770638        1.3822131763       26.3943516163
  C         6.1869967413        2.2571011335       27.9098458326
  H         6.3043500935        4.4359023628       28.2471842327
  C         7.9971062324        2.4608335567       23.2021015044
  H         8.4273880330        6.0588477848       23.3124557770
  C         8.3608984997        4.4570813907       22.1335766242
  H         4.9332687670        5.0171486360       23.8643714976
  H         4.5942507459        4.5100876785       25.5025154927
  C         3.4977057528        6.2724574258       24.8581013280
  C         5.6921036157        1.5931018307       29.1637372618
  C         8.3238630176        3.1383909075       22.0223123899
  H         7.8113155111        1.3625340931       23.0331789476
  C         8.7832312128        4.8112044489       20.8360796681
  H         2.9387304190        5.7616449884       24.1574416360
  H         3.6585057837        7.2040595958       24.3659653793
  C         2.8162767277        6.5150071208       26.2011657559
  C         5.7212583557        0.2259063544       29.4437449983
  C         5.4193419309        2.5334055025       30.2839711046
  C         8.6977800548        2.4045176445       20.7659750537
  C         8.7761505778        3.7137029836       19.9786672394
  S         9.1993155636        6.2439728143       20.0150732124
  H         2.2581324213        7.3855633283       26.2646857120
  H         3.5283812888        6.7243145681       26.9757262442
  C         1.9383178979        5.3013148946       26.5541170207
  N         5.9371946890       -0.7481216070       28.4602160041
  C         5.4731835114       -0.2960241146       30.6822160020
  C         5.0827165337        1.9761597887       31.4766301167
  H         5.3856181644        3.6195503516       30.1802238214
  C         7.4636497192        1.5585280476       20.2552362437
  C        10.0902221228        1.6681899049       20.7165007107
  C         9.1424114439        4.0731921659       18.6582646746
  C         9.4045097159        5.4274474260       18.5201106932
  H         1.2275054315        5.3656505034       25.6870112002
  H         2.5812834968        4.4611210780       26.5511696020
  C         1.1712917037        5.4293850357       27.9034982031
  S         5.9243475236       -2.2041340966       29.2207041758
  N         5.6257790977       -1.6762912199       30.7686937022
  C         5.1931677512        0.5277042914       31.7324923035
  H         4.8340764515        2.6696087190       32.2458518887
  H         7.2760012809        0.6615042507       20.8335718176
  H         7.8248330670        1.2242397174       19.3289431806
  C         6.1831753720        2.3854840983       19.9499795258
  H        10.2454957669        1.0548917990       19.8729969622
  H        10.1213725181        1.0073079897       21.5961641838
  C        11.2902031319        2.6228102419       20.9394018703
  H         9.2747595746        3.2471153465       17.9352483488
  C         9.8175523438        6.1300886912       17.2698499578
  H         0.6126537151        4.4687672814       28.1396112979
  H         0.4497446181        6.2762363777       27.7349212740
  C         2.1954131653        5.5218029442       29.0540023684
  C         5.0609103060       -0.0982554280       33.0145505618
  H         6.4379520251        3.3037259929       19.3983796353
  H         5.8078203469        2.7293083390       20.9297339559
  C         5.0292247487        1.5965137766       19.3114875745
  H        11.2002574318        3.0449533318       21.9454073632
  H        11.3419710571        3.4852361814       20.2768905088
  C        12.6506458184        1.8602505268       20.9897702805
  C         9.8096424888        7.4841914002       17.1102065234
  C        10.0533790431        5.2344801825       16.0389811937
  H         2.8867601126        4.7114264182       29.2053152820
  H         2.7818967372        6.4337378378       28.9270444148
  C         1.5043544037        5.7647883172       30.3928367278
  H         4.9205476025       -1.1261821029       32.9043954089
  C         4.8518073371        0.3062139746       34.2876204545
  H         4.5904684635        1.0504627323       20.1195710959
  H         5.2604798339        0.9062867939       18.5116271587
  C         3.8581696681        2.4602067600       18.8709567910
  H        12.8425557426        1.1596332306       21.8582477956
  H        12.7629537439        1.2802686127       19.9995694772
  C        13.8119008561        2.8370423657       21.0047073526
  N         9.5071613183        8.4072825122       18.0928925851
  C        10.1298528972        8.0701802423       15.8862656715
  C        10.3133315285        5.7785943920       14.7830094344
  H         9.8906047594        4.1453931321       15.9585392366
  H         1.8904311484        6.5379771470       31.0964364327
  H         0.5163013689        5.9987455757       30.3013303483
  H         1.3924642756        4.8369255970       30.9087351061
  S         4.6902329998        1.9419127355       34.8078565782
  C         4.7480271736       -0.6788972571       35.3386062241
  H         3.6688906246        3.0131218861       19.7908793106
  H         4.1809235007        3.1672102507       18.1133249454
  C         2.5556640673        1.7406915613       18.5403641711
  H        13.6002846944        3.7818114782       20.4880166639
  H        14.7009849270        2.4326760830       20.5228797913
  C        14.1736810679        3.3168225853       22.4171439120
  S         9.5958027929        9.8936743047       17.4170245192
  N        10.0119239595        9.5240019395       15.8999662920
  C        10.4653917418        7.3195805715       14.6841738656
  H        10.4448397190        5.1939224249       13.8790159349
  C         4.2669665961        1.2307331801       36.3953423921
  N         4.3591020414       -0.1059942505       36.4846623186
  O         4.9255675693       -1.9018260500       35.0968717997
  H         1.8436603273        2.4724934857       18.2046086546
  H         2.0946681524        1.0733682589       19.4392453418
  C         2.7756963764        0.6882440999       17.4408997871
  H        14.6892535053        4.2856183440       22.4664952590
  H        13.2438484336        3.5729482896       22.9777964675
  C        14.9829735169        2.3012866915       23.2483801123
  C        10.7836998173        8.0734432529       13.5353224259
  S         3.7761553355        2.2109258208       37.7398045099
  C         4.3118926561       -0.8484221748       37.6931546386
  H         2.0032949634        0.9060231173       16.6823660622
  H         3.7497673786        0.8974641867       16.9588051009
  C         2.8025706913       -0.8232447474       17.8505832174
  H        15.3328777899        1.5361222334       22.5922622209
  H        14.3493911162        1.8311404348       24.0045470429
  C        16.2326748484        2.9304213833       23.8265879104
  H        10.4173530834        9.1193913460       13.4968940095
  C        11.3853953007        7.7402929689       12.3705553914
  H         3.5363302918       -0.3752808863       38.3660572611
  H         4.0408231002       -1.8580817423       37.4514584954
  C         5.7506458887       -0.9423057820       38.2788379942
  H         3.3788778260       -0.8266228029       18.7641949651
  H         3.2802469234       -1.3927810839       17.0966557050
  C         1.4247938405       -1.3692924242       18.0558004394
  H        16.0103414343        3.9361319215       24.1665693984
  H        16.4738852704        2.3068059103       24.6317339923
  C        17.3517228021        3.0862724729       22.8089159791
  S        12.2024590128        6.2991404909       11.9295863263
  C        11.5084900068        8.7997675813       11.3494328731
  H         6.4707594914       -0.5963302778       37.5629537850
  H         5.8137580868       -0.3003173859       39.1841071243
  H         6.0470513254       -1.9205404784       38.6462812448
  H         1.4267326590       -1.6198825670       19.1492045727
  H         1.4541804244       -2.3038906180       17.5365137613
  H         0.5678668083       -0.7411937273       17.7377443326
  H        17.2940186007        4.0181017838       22.2345139045
  H        17.3498356148        2.2341422893       22.1193246046
  H        18.3712846555        3.3544004058       23.1768864451
  C        12.5783009793        7.0964596117       10.3568655944
  N        12.1455676362        8.3746439202       10.2407279706
  O        10.8915412506        9.8455728710       11.4944051894
  S        13.1637376201        6.2165951494        8.9391802928
  C        12.3121877252        9.1915487215        9.0759444197
  H        12.1661905774       10.2000325424        9.4020240510
  H        13.3693244495        9.0035621533        8.6570888098
  C        11.2830750465        8.7076256747        8.0321724827
  H        11.2428977030        9.4152471873        7.1636770556
  H        11.5116613091        7.6837657478        7.7024078628
  H        10.2248600109        8.7366987913        8.4263224708
  H        -1.2324052799       14.1357092357       16.0565389576
  C        -2.3497585058       13.9947313939       16.1229010649
  H        -2.8076248347       14.9613632047       16.2006577674
  C        -2.6421015177       13.1811800542       17.3340829758
  C        -2.8431278735       13.2680124463       14.8423017422
  C        -2.4387098038       13.9449991738       18.6911423527
  H        -3.6789735358       13.0906493721       17.4568280716
  H        -2.1843934339       12.1706812182       17.4702259800
  H        -2.4425449382       12.3012556184       14.8469572594
  H        -3.9264900800       13.0349344610       14.7879062872
  H        -2.5719147218       13.7749792653       13.9196115053
  C        -2.3009749157       12.9695753542       19.8674520822
  H        -3.3789808501       14.5120309905       18.6985207846
  H        -1.5643126888       14.5880166490       18.6490413093
  C        -2.4462041162       13.5628649804       21.2689713628
  H        -2.9996503406       12.1812816564       19.8027343858
  H        -1.3646873132       12.4466595540       19.8774683715
  C        -1.4789196254       12.9235321303       22.3065951530
  H        -3.4540775627       13.4112166169       21.6708458459
  H        -2.2504274388       14.6347132755       21.1231044090
  C        -0.2600282460       13.8635813382       22.5089085019
  H        -2.0684265234       12.7825809203       23.2161412684
  H        -1.2141218922       11.9136273014       21.9660465016
  C         0.9306605686       13.1850175676       23.2789617183
  H         0.1610529258       14.3754461806       21.6030455894
  H        -0.5792771381       14.7373095733       23.0584384590
  C         1.2530978060       11.9441402723       22.5183711832
  C         0.5556361088       12.3305516533       24.4409257936
  C         2.1796668682       14.1458534228       23.3869344141
  C         1.0847841571       10.7513510787       23.2213916115
  C         1.7771049119       11.6164396430       21.2200776900
  C         0.6237324226       11.0024508167       24.5136179198
  C         0.0704178017       12.9944236545       25.5809111900
  H         2.2670677754       14.5759537178       22.4412885412
  H         1.8917650782       14.9296576498       24.0922661777
  C         3.4202088835       13.4300405505       24.0370638242
  S         1.3803922804        9.2571946446       22.3030525878
  C         1.8644922849       10.2555902374       20.9794683569
  H         2.1170697815       12.4628577242       20.6305621543
  C         0.3419998880       10.3351288200       25.6912909674
  H         0.0378254068       14.0365915147       25.6258510075
  C        -0.1719129727       12.2913136941       26.7128501864
  H         3.5849312019       12.6078733351       23.3988177147
  H         3.2658668153       13.1093433546       25.1287910321
  C         4.7108935197       14.1511065411       24.0342596778
  C         2.1682300361        9.5839294374       19.6944821186
  C        -0.0849465754       10.9303131265       26.8241838181
  H         0.4954759829        9.2538725400       25.6370210446
  C        -0.5838687494       12.6779607324       27.9788290008
  H         5.4490811866       13.5747218633       24.6315753581
  H         4.5709316026       15.1021885660       24.5040877942
  C         5.2855052483       14.4734946170       22.6559626440
  C         2.2492859686        8.1821888964       19.4151639831
  C         2.6550093061       10.4476209975       18.5336076218
  C        -0.5353505364       10.2545585059       28.0489584449
  C        -0.7390974530       11.5806236408       28.7592004870
  S        -0.7775771166       14.1507452241       28.7417490596
  H         6.0930926333       15.2225933544       22.6284057858
  H         4.5668482458       15.0416334887       22.0623784036
  C         5.8332284891       13.2321344100       21.8174952322
  N         2.1701009087        7.2138022659       20.4139547741
  C         2.6181437680        7.6583940779       18.1978418860
  C         2.9473271870        9.9478686650       17.2545022846
  H         2.6780006695       11.5236476254       18.6909318621
  C         0.6433247224        9.5531024236       28.8771018183
  C        -1.8313761619        9.4462313107       28.0379672739
  C        -1.0767066327       11.9957804899       30.0667353924
  C        -1.2258802318       13.3097871972       30.2573837439
  H         6.2679783871       12.5285703700       22.4968959650
  H         5.0418984677       12.5484706386       21.3713664754
  C         6.9201035873       13.4517637408       20.7386879790
  S         2.3377284529        5.8056454450       19.7139874487
  N         2.5838499849        6.2827459184       18.1913013450
  C         3.1042936301        8.4676417705       17.0865499531
  H         3.3496332122       10.5417321494       16.5046129818
  H         0.9424709211        8.6981533207       28.2835391403
  H         0.3718019511        9.1033032488       29.7928269634
  C         1.8485835976       10.5012818162       29.2638787637
  H        -1.5865249223        8.5198654320       27.4962819417
  H        -2.0236850691        9.1827519121       29.1444742137
  C        -2.9830652085       10.1152286545       27.3445893996
  H        -1.4016173898       11.2052615309       30.7532135004
  C        -1.5338954924       14.0946870412       31.5241546634
  H         7.4618978779       12.5139779935       20.4996798422
  H         7.6436271170       14.1169967738       21.2434833670
  C         6.4926109444       14.0951447658       19.4645292934
  C         3.4055518951        7.8008993951       15.8368523630
  H         2.3370231711       10.9789116541       28.4069644094
  H         1.5162859979       11.3138485212       29.8944246736
  C         2.9873045639        9.6175087078       29.9110883717
  H        -2.7342773543       10.2880166175       26.3036806703
  H        -3.1118608837       11.1443554974       27.7326091738
  C        -4.2494747214        9.3658696750       27.3043316130
  C        -1.5897852225       15.4968129341       31.6950455412
  C        -1.6872141193       13.3538035537       32.7888923890
  H         5.6508293353       14.7333238441       19.5883195077
  H         7.3277329862       14.8293893812       19.2702545586
  C         6.1513854515       13.1235455289       18.3241101714
  H         3.2342991999        6.7410073630       15.7907054458
  C         3.7364379302        8.1972915657       14.5565478093
  H         3.1655759302        8.8487079073       29.1630989545
  H         2.3815315517        9.0809136429       30.7398350369
  C         4.3039812804       10.4825619108       30.3557139314
  H        -4.2041514682        8.5372324493       26.6437096140
  H        -4.4402613370        9.0401703348       28.3449476700
  C        -5.4366164514       10.2926426977       27.0039663640
  N        -1.3632471230       16.4264436697       30.6398508986
  C        -1.8868322471       16.1760250285       32.8665114251
  C        -1.9318804462       13.9950062792       33.9648222343
  H        -1.5995309346       12.2747156498       32.7639698786
  H         7.0379455421       12.8864530423       17.7886734177
  H         5.5899543297       12.2422171529       18.6513173626
  H         5.5529423915       13.5881277415       17.4921573833
  S         3.9292615936        9.8378859872       14.0029831980
  C         3.8631544307        7.1809728067       13.5239976704
  H         4.2575473368       11.3894202041       29.8002484454
  H         4.1452657177       10.9495111404       31.3235129655
  C         5.6617722646        9.7756522013       30.2284090515
  H        -5.2847828505       11.2966879484       27.2682683034
  H        -6.2741142616        9.9627600047       27.5480117062
  C        -5.9137599527       10.3241846408       25.4901363951
  S        -1.3557642812       17.9125827614       31.2054327510
  N        -1.8165778845       17.5635433880       32.7407238747
  C        -2.1837378684       15.4919640100       34.0407399089
  H        -1.9228412568       13.3828577052       34.8696587008
  C         4.1828826016        9.1022658481       12.3823837428
  N         4.0836714341        7.7089943877       12.3279761905
  O         3.7804295270        5.9715235613       13.8437201595
  H         6.4930894244       10.4178145317       30.2967772715
  H         5.7125569706        9.3220258185       29.2441811534
  C         5.9424702992        8.7661700510       31.3358911130
  H        -5.1537961356       10.7282358060       24.7550451984
  H        -5.9742987777        9.2490357663       25.1686456427
  C        -7.2239444959       11.0500894184       25.4197081617
  C        -2.4303039182       16.2261560496       35.2122866855
  S         4.4835131120        9.9646423796       10.9377033185
  C         4.0563948076        6.8831347257       11.0925580804
  H         6.6426555397        9.1690448410       32.1896394942
  H         4.9943752339        8.5229326334       31.8977002665
  C         6.3924575188        7.3737656390       30.7567537980
  H        -7.1826369247       11.7998312958       24.5961119991
  H        -7.5424568255       11.6492733978       26.3030165727
  C        -8.3280337724       10.1405696481       25.0367637488
  H        -2.4427597757       17.3742701192       35.0620357301
  C        -2.9080304294       15.8739616299       36.4082776316
  H         4.4443078100        7.3765003994       10.2255467396
  H         4.7889227759        6.0094611473       11.2394908320
  C         2.6527549833        6.3152663807       10.7426958009
  H         7.1559661529        7.4034942942       29.9665208779
  H         5.5395257110        7.1254466268       30.1544957026
  C         6.7470454581        6.3426497643       31.7921665015
  H        -8.9201820293       10.6403585702       24.3515416131
  H        -8.1352981310        9.2981912808       24.4737478787
  C        -9.0898910387        9.5279483536       26.2143432662
  S        -3.3202410803       14.2499327713       36.8478381817
  C        -3.2653932122       16.8866916038       37.4010236720
  H         2.8817438621        5.5005540808       10.0914128319
  H         2.2514669331        5.8448991239       11.6817566014
  H         1.9097672360        7.0432892246       10.4336731350
  H         7.5409423301        6.6154355018       32.5119148776
  H         6.9335225580        5.3878080548       31.3643490397
  H         5.8985026055        6.2093016100       32.4500143906
  H        -9.9779750715        8.9579590233       25.8572933653
  H        -9.4545120040       10.3067965280       26.9234718707
  H        -8.4888936786        8.9820990252       26.8766502364
  C        -3.7365662239       14.9334770923       38.3835942792
  N        -3.8037073621       16.2840757590       38.4781501292
  O        -3.0911346600       18.0909300961       37.3271119183
  S        -4.3695446676       14.0249694822       39.7703923891
  C        -4.0912563265       17.0582066637       39.6688052542
  H        -4.1714878466       18.0991209347       39.3371446211
  H        -5.0818176014       16.8979565858       40.1082471842
  C        -2.8998000262       16.9635504777       40.6453166057
  H        -3.3276814593       16.6581953688       41.5796421384
  H        -2.1056893919       16.2682252167       40.3471654856
  H        -2.4387082978       17.9358164503       40.6207508443
