352
 i =    45400, time =    45400.000, E =        25.1588295878
  H        10.3786346160        7.7564356613       33.2349246816
  C        11.0175613754        7.1303179130       32.6364969498
  H        11.9511517033        7.7632183649       32.6922536967
  C        10.3757532632        7.1613751199       31.2282506287
  C        11.3415352154        5.7988685984       33.3775854887
  C        10.9342511172        6.1654552093       30.1482946552
  H         9.3088522779        6.8425754821       31.4449192050
  H        10.4536955256        8.1444582189       30.7811865280
  H        11.7997032377        6.1370521729       34.3056675988
  H        10.4281561898        5.2765109387       33.5395951598
  H        12.0041720871        5.0945725226       32.8043777261
  C         9.8554713244        5.9426396217       29.0422730310
  H        11.1760569996        5.2609807345       30.6249096525
  H        11.8143026410        6.5570914852       29.6867897039
  C        10.4425609069        5.5902957292       27.5973395730
  H         9.1240656948        5.2353009879       29.3692211104
  H         9.3229136639        6.8816131149       28.9281181565
  C         9.4740886885        4.9561253216       26.6123144758
  H        11.3152511779        4.9847176140       27.6845802676
  H        10.7344646733        6.6177669067       27.1109114192
  C         8.1830967282        5.8498557320       26.3573709544
  H         9.9320231660        4.7191802757       25.6977189364
  H         9.1049467904        3.9949454053       27.0438777495
  C         7.0606206345        5.1809592215       25.5192929752
  H         7.8052264257        6.2283737137       27.2497360639
  H         8.5209079937        6.6911360557       25.7411051588
  C         6.7669045337        3.7781431665       26.0878403957
  C         7.4914207931        4.4850728728       24.2352492501
  C         5.7663577541        6.0124487099       25.4772065459
  C         7.1272848003        2.6540941254       25.3571265470
  C         6.0457333191        3.4214229002       27.2724650119
  C         7.5492931263        3.1184786709       24.1203846820
  C         7.9090166324        5.2720307582       23.1461348851
  H         5.9756844002        6.9390469272       25.0247956258
  H         5.4190090551        6.3378410847       26.4273310437
  C         4.5692974931        5.4190036074       24.6726925356
  S         6.6835105893        1.1297128550       26.1658361140
  C         6.0782927070        2.0253910378       27.4921827773
  H         5.5761690202        4.2087333606       27.9110027751
  C         7.9823474618        2.6147747680       22.9744738553
  H         7.8546577844        6.3090550071       23.1420184560
  C         8.3728935895        4.7043494650       21.9612281338
  H         4.9778234988        5.4739027343       23.6089399538
  H         4.2069677843        4.4310160691       24.9369984877
  C         3.3214101901        6.2971930890       24.7069380917
  C         5.7662583053        1.4495113335       28.7842233862
  C         8.3318917134        3.3547250150       21.8048357148
  H         8.1494119111        1.5618722532       22.9060343437
  C         8.8907855030        5.0796292861       20.7507039621
  H         2.6355138728        5.9178359006       24.0362084060
  H         3.5615618878        7.3073309457       24.4178073175
  C         2.6587303305        6.4889187532       26.0719773149
  C         5.8250949658        0.0879838565       29.1311121691
  C         5.2607989686        2.2961389094       29.8901181333
  C         8.8967066646        2.6336937069       20.6052271576
  C         9.1393526068        3.9638298370       19.9450604715
  S         9.2426456808        6.5515665261       19.9437081155
  H         1.9224164952        7.2525590563       25.8506508254
  H         3.2641751565        7.0828239843       26.7057411143
  C         2.1245570718        5.1766765456       26.6164513532
  N         6.2208454822       -0.9180136793       28.2628785786
  C         5.6654306122       -0.3882081475       30.4168530815
  C         4.9950579559        1.7901462876       31.1850071380
  H         4.9895650289        3.3483064566       29.7734431286
  C         7.8586601685        1.6510005674       19.9947284222
  C        10.2634875973        1.9588125043       20.8460301395
  C         9.5486873856        4.2925258795       18.6766936440
  C         9.5734884520        5.6505069196       18.4984750504
  H         1.3868501141        4.7432350724       25.9844145288
  H         2.8444276893        4.3767983176       26.8786200726
  C         1.4027340316        5.5193086445       27.8831820408
  S         6.1636723013       -2.3917258766       28.9781738593
  N         5.8571392889       -1.7759011981       30.4548537013
  C         5.2805086037        0.3813094196       31.5192908350
  H         4.6382904844        2.4786028974       31.9489333266
  H         7.5067570582        0.9995703061       20.7376562506
  H         8.2697169554        1.0488976013       19.1797081898
  C         6.6784274238        2.4092374003       19.3887855675
  H        10.6833672742        1.6484599440       19.9295004182
  H        10.0747518937        1.1162220684       21.4076684277
  C        11.2980604305        2.8063207350       21.6085286817
  H         9.7718612235        3.4944262143       18.0336997884
  C         9.8475481882        6.4699769270       17.2696689638
  H         0.7021190339        4.7087853409       28.0975902758
  H         0.7926884885        6.4669417971       27.8291756548
  C         2.4001298300        5.6136989954       28.9788607800
  C         5.1152355776       -0.2728670581       32.7911255640
  H         6.9269071950        2.9594607191       18.4935527965
  H         6.3399289300        3.1836876023       20.0117500342
  C         5.5168354698        1.5009962661       18.9527792711
  H        10.9890370146        2.9765529832       22.6668249465
  H        11.3828239550        3.7803885525       21.2566525959
  C        12.6271765059        2.1008714204       21.5142760543
  C         9.9125957574        7.8847479396       17.0871209574
  C         9.9903355780        5.7353776428       15.9780032462
  H         2.8233510061        4.6036914134       29.0422077525
  H         3.3039760319        6.1388102103       28.6638662155
  C         1.8808628032        6.0355030989       30.3219540153
  H         5.3557549811       -1.3208799260       32.8993226993
  C         4.7193336150        0.1928755187       34.0520860475
  H         5.1288533874        1.0147669894       19.8560668489
  H         5.8822320704        0.7585750577       18.3233353295
  C         4.3181748207        2.2135713838       18.3374894304
  H        12.7142577109        1.0968301424       21.9566479404
  H        12.7476026715        1.8938449748       20.4746644893
  C        13.6827896848        3.0730236317       21.9975042479
  N         9.6947244354        8.8069214894       18.1224288311
  C        10.2693187243        8.4945684766       15.9130309996
  C        10.4790391915        6.3415528242       14.8420874435
  H         9.7213667503        4.6600640637       15.9267265338
  H         1.7462603693        5.1424387822       30.8673266282
  H         2.5435830775        6.6650426627       30.8457683381
  H         0.9470767967        6.5686919056       30.3040916832
  S         4.1897396331        1.8242172373       34.4216655988
  C         4.6673327838       -0.7004290801       35.2374575040
  H         4.2619696828        3.2088527374       18.7898871685
  H         4.5751734568        2.3866511404       17.3234876970
  C         2.9513583760        1.6028846328       18.5227390253
  H        12.9952339649        3.8499544563       22.3743936130
  H        14.3121665757        3.4307621060       21.1805855619
  C        14.6014693671        2.7279461261       23.1781957031
  S         9.8912992033       10.3032719210       17.4823600122
  N        10.3028249472        9.9116697223       15.9817696859
  C        10.6132716558        7.7888910463       14.7456335050
  H        10.4899084026        5.7478337068       13.9232543921
  C         4.2033207025        1.3386777982       36.0801571462
  N         4.3301780387       -0.0009275886       36.3202825907
  O         4.8198449962       -1.9220104696       35.1750180801
  H         2.3078238814        2.4806397342       18.6981371479
  H         2.6944391829        1.0786451622       19.4733287110
  C         2.7012876382        0.7765234304       17.3010417981
  H        15.1303713866        3.6482453257       23.3509964582
  H        13.9783981938        2.6941125451       24.1434494232
  C        15.6247821824        1.6493392356       22.9955092588
  C        10.9548627082        8.5421944188       13.5833222430
  S         3.5033182435        2.2714330854       37.4115574538
  C         4.2011586532       -0.6481907176       37.6503199405
  H         2.3618045984        1.4266379204       16.4885075146
  H         3.6246730010        0.3046949970       16.9109590338
  C         1.6129294361       -0.3108843013       17.4268119942
  H        15.6211213288        1.1765474110       21.9385449998
  H        15.4302222258        0.8720345500       23.7760241044
  C        17.1229018174        2.0303999410       23.2292041055
  H        10.7287681095        9.6066723309       13.7100936185
  C        11.3701615988        8.1546559786       12.3506213101
  H         3.5968081773       -0.0792693153       38.3045834049
  H         3.6242182537       -1.4941218726       37.4589112479
  C         5.5581969725       -0.8912483620       38.3785021431
  H         1.1404065132       -0.3862647975       16.4575489523
  H         0.7667808305       -0.0527827154       18.0831589536
  C         2.1585940731       -1.6360400111       17.8808421292
  H        17.2563456371        2.5766424983       24.1664879668
  H        17.7362015966        1.1567279252       23.5171630673
  C        17.6811752743        2.9253706553       22.1358944011
  S        11.8198873183        6.5118477231       11.9102345425
  C        11.6079598514        9.1561520090       11.3000019012
  H         5.3592009418       -1.3533944945       39.3430746276
  H         6.3865900814       -1.4331710693       37.8598800459
  H         5.9558442077        0.0381587859       38.5652559539
  H         2.8317823658       -1.5182058883       18.7223808572
  H         2.8531094232       -1.9827738566       17.1840084152
  H         1.3332053593       -2.3467470536       18.0772247575
  H        17.7351416204        2.2919973669       21.2441936738
  H        18.7078652191        3.2253227495       22.3342870721
  H        17.1366383712        3.8217960815       21.9289984124
  C        12.2480317486        7.2409941850       10.2921610486
  N        12.1307898080        8.5750576528       10.2337912465
  O        11.4155410385       10.3774868537       11.5365548789
  S        12.9221117216        6.4057116416        8.8280012451
  C        12.3802721534        9.4396676444        9.0289625104
  H        12.8296341239       10.3919214695        9.3193851072
  H        13.0618457530        9.0155612929        8.2873262483
  C        11.0030271303        9.7953896163        8.4155953957
  H        10.2961522075        9.2617396375        8.9288607038
  H        10.8293695759       10.8225344340        8.5314085737
  H        10.9544010925        9.4678103187        7.4608300468
  H        -0.9401257402       13.6836998780       16.8854825400
  C        -1.7381162502       14.3416199360       16.4604179307
  H        -1.1165177224       15.0911137390       15.9476262482
  C        -2.6431377369       14.9735493514       17.5864858298
  C        -2.4724648252       13.5040987123       15.3684417714
  C        -2.9132552251       13.9374331047       18.6804001794
  H        -2.1952612783       15.8866540560       18.0276155847
  H        -3.6273999590       15.2913381099       17.2030713971
  H        -3.5707841926       13.6985973531       15.2978391308
  H        -2.1035126013       13.8869496713       14.4959567118
  H        -2.1052699367       12.5070473018       15.0680634190
  C        -1.7852503571       13.6600233256       19.5852874349
  H        -3.3205676416       13.0907467532       18.1940555691
  H        -3.6863990288       14.2782294938       19.2813497523
  C        -2.3165667932       13.3028234971       20.9767317787
  H        -1.1538989903       12.8135762834       19.2488991156
  H        -1.0403206091       14.4745717043       19.7450454744
  C        -1.2923081645       12.6642787965       21.8893418894
  H        -3.2184034456       12.7048136953       20.8189825627
  H        -2.6623132214       14.2098905774       21.4654951915
  C        -0.1418009598       13.6099731139       22.2933702522
  H        -1.7863825346       12.2328331900       22.7793151025
  H        -0.8502703001       11.8062173949       21.3124766769
  C         1.0310488477       12.9605962246       23.1339768904
  H         0.3251450402       13.9916862912       21.3352609397
  H        -0.5318451767       14.4722819955       22.7627880569
  C         1.4125044903       11.6678651676       22.4613123720
  C         0.5946070725       12.2671500611       24.3618788967
  C         2.2105172145       13.9690584605       23.3271850428
  C         1.1346466248       10.5284166356       23.2055660444
  C         2.0233164958       11.4280765517       21.2068578407
  C         0.5827406032       10.9051030442       24.4544504012
  C         0.1124498503       12.9985093765       25.4499247845
  H         2.3731260707       14.4365763042       22.3880992835
  H         1.9690322579       14.7448711842       24.0235280779
  C         3.4640586669       13.2658356407       23.8650116522
  S         1.7795285603        9.1191305399       22.4522304034
  C         2.2104108407       10.0470113621       21.0792588842
  H         2.1301104060       12.1946117891       20.4823106917
  C         0.2729424941       10.3775491591       25.6669712407
  H         0.1086838867       14.0400664644       25.3657225947
  C        -0.2401597540       12.4506472535       26.6272841179
  H         3.7965804741       12.4513290872       23.1627373111
  H         3.2711596559       12.8613848605       24.8012007572
  C         4.6312707776       14.1549790535       24.1287813655
  C         2.5688339180        9.3521656677       19.8023636350
  C        -0.1766139595       11.1069008634       26.7910455052
  H         0.3884245924        9.2780979270       25.6666111482
  C        -0.4849522532       12.8618846989       27.8968592902
  H         5.2764697171       13.4787070380       24.6936245661
  H         4.5007344072       15.0003654092       24.8219842831
  C         5.3968799731       14.5622820622       22.8913778524
  C         2.5088203191        7.9642622227       19.6170444280
  C         2.9092731563       10.1614538662       18.5819601261
  C        -0.6159308368       10.4642059756       28.0728905437
  C        -0.7750704148       11.7901750682       28.7583390793
  S        -0.7558369452       14.3059167273       28.7744027570
  H         6.1427944047       15.3056722515       23.1308695681
  H         4.7329145715       15.1278052993       22.2006810112
  C         5.9537835606       13.3734779428       22.0696631014
  N         2.2395943743        6.9719427426       20.5623361691
  C         2.7394890691        7.3412123137       18.3919877140
  C         3.0932239719        9.5397840621       17.3925449289
  H         3.0015153244       11.2290653440       18.5943354664
  C         0.6149749402        9.6517493824       28.5707406026
  C        -1.8547825668        9.5919540423       28.0213139733
  C        -1.1830194217       12.1164951136       30.0603005103
  C        -1.2348697732       13.4568734135       30.2095816506
  H         6.2603588913       12.6440150859       22.7994611571
  H         5.1398886226       13.0215295623       21.4072221172
  C         7.2856528294       13.5908148802       21.3289324195
  S         2.4261704053        5.4836240106       19.8995716408
  N         2.8076085571        5.9295009600       18.3730726521
  C         2.9305305093        8.0645276577       17.2009054630
  H         3.3172413450       10.1773187999       16.5448256052
  H         0.9621685528        8.9175619341       27.8243972666
  H         0.3271266625        9.0338842731       29.3815333952
  C         1.7428727823       10.3800494627       29.2266157520
  H        -1.7233732216        8.7535591507       27.2980920876
  H        -2.0941067880        9.2453173661       29.0348381823
  C        -3.0484712891       10.4444654896       27.5597166411
  H        -1.4437866187       11.3948106682       30.7457144439
  C        -1.5795188879       14.1198737693       31.5532199842
  H         8.1107513841       13.2005287240       21.9260232178
  H         7.3870807982       14.6759271510       21.3108810544
  C         7.3184633132       12.9895733717       19.9102024691
  C         3.1358973723        7.3442829165       15.9639637158
  H         2.3496615225       10.9411880306       28.4952045293
  H         1.3730279925       11.0301807019       30.0467659705
  C         2.7041122818        9.4449371880       29.9907362488
  H        -2.8213916431       10.9637187295       26.6488324807
  H        -3.2526535079       11.2998883101       28.2044679279
  C        -4.3072261170        9.5727451963       27.6268421125
  C        -1.6558883598       15.5115193509       31.7998809354
  C        -1.7320471463       13.2269493379       32.7418375807
  H         8.3137386817       12.5586228851       19.6457723345
  H         6.7275923844       12.0869023421       19.9472633480
  C         6.6838771451       13.9022524404       18.9222891378
  H         2.9431604123        6.2590651451       16.0821838694
  C         3.4457208119        7.8123388698       14.7159521789
  H         3.1398751019        8.7054571475       29.3102179470
  H         2.0957543943        8.7933274491       30.6528845130
  C         3.7341692738       10.2151109098       30.7061974528
  H        -4.2478187627        8.8560125612       26.8911342168
  H        -4.4522003387        9.1849969536       28.6279649821
  C        -5.4959825839       10.4834256001       27.2530723116
  N        -1.4723046698       16.4481611066       30.8287112589
  C        -1.9655349510       15.9983244802       33.0338816943
  C        -2.0711963527       13.7638421803       33.9776771270
  H        -1.5551605265       12.1887208045       32.7480018602
  H         5.8877200308       14.4127736505       19.4697167048
  H         7.2423071203       14.7060489120       18.4439830532
  H         6.3044579459       13.2950646211       18.1559598510
  S         3.9687290231        9.4005674431       14.3450558039
  C         3.4579785626        6.8540733092       13.6546835283
  H         3.6513152432       11.2300481157       30.2417295104
  H         3.3544085335       10.2350763778       31.7346873027
  C         5.1440494360        9.6288232189       30.7380881503
  H        -5.0362439495       11.4174002482       26.8653633542
  H        -6.1464419682       10.7441213468       28.0570552707
  C        -6.3616742586        9.9649586794       26.1306941952
  S        -1.7819204223       17.8790453050       31.5401573184
  N        -2.1642287667       17.3662314306       33.0108053037
  C        -2.2655632747       15.2360164257       34.1273578457
  H        -2.2766426808       13.1332591280       34.7888882819
  C         4.0428719700        8.7846999773       12.6503637626
  N         3.8385169689        7.4785443989       12.5270551198
  O         3.3666054271        5.6301951089       13.8745884049
  H         5.8598412877       10.3993125505       31.0923070431
  H         5.4712582061        9.4532896451       29.7159443072
  C         5.1852715762        8.4035807664       31.6322002645
  H        -5.7602614214        9.5474225939       25.2815080042
  H        -6.8930171823        9.1634047138       26.6645643211
  C        -7.2516914171       11.0664631400       25.6027359923
  C        -2.5873878613       15.9286210528       35.3592217093
  S         4.8761053498        9.5814821847       11.3671076540
  C         3.8634829304        6.7375697053       11.2407177519
  H         5.8992362214        8.5744047298       32.4322687295
  H         4.2064078398        8.1326431244       31.9591735611
  C         5.7576233728        7.1133714669       30.8607512987
  H        -6.7027525959       11.5585340420       24.8483281859
  H        -7.5098834921       11.8350547434       26.3640706773
  C        -8.4348791083       10.4948224953       24.8345198124
  H        -2.4515079890       16.9654395413       35.4399425252
  C        -3.2176995705       15.5471445627       36.5127174412
  H         4.5917641811        7.1298645826       10.5670379115
  H         4.2420319518        5.8066312587       11.5733686260
  C         2.4981592355        6.5537262875       10.6074225040
  H         6.8744100149        7.1859398911       30.7510515128
  H         5.2205358312        7.0508505164       29.9495603689
  C         5.6258480790        5.9333498537       31.7851394406
  H        -8.4908907930       11.1322077101       23.9681916814
  H        -8.2313148738        9.4792424982       24.4883602019
  C        -9.6786963828       10.5315343954       25.7189674277
  S        -3.8051445726       13.9792466217       36.8558739531
  C        -3.4343593572       16.4864520212       37.6471457218
  H         2.5546021014        6.6247875103        9.5269868885
  H         1.8975701779        5.7182357977       10.9268141131
  H         1.8457914499        7.4232897708       10.9559297993
  H         4.5808719600        5.5550312219       31.8283575362
  H         5.9540076958        6.1347142898       32.8023744682
  H         6.2347909664        5.0622309765       31.4729496398
  H       -10.5902566963       10.3711709083       25.2018339997
  H        -9.6773230429       11.3121520957       26.4377998087
  H        -9.7015349268        9.5824948509       26.4068531507
  C        -4.3155824518       14.5697117161       38.4410735463
  N        -4.1761653689       15.9138364659       38.6186926765
  O        -2.9274714593       17.6070459593       37.6401864579
  S        -5.2134787946       13.6781750912       39.6739752871
  C        -4.4317010990       16.5495550128       39.8755762973
  H        -4.6122831736       17.6502939255       39.6864235968
  H        -5.3300574923       16.3157297160       40.4046163216
  C        -3.2945394316       16.4083537685       40.8328961069
  H        -3.0211016354       15.4003978011       40.6164182922
  H        -2.5851351267       17.1761436814       40.5952860848
  H        -3.4012536675       16.5497076690       41.9087805391
