352
 i =    65600, time =    65600.000, E =        24.7630586730
  H        10.4658960610        4.9261173758       31.7189990564
  C        10.8238346114        5.8767922703       32.0844788014
  H         9.9264026473        6.2551536174       32.5724498508
  C        11.2443059197        6.8291324710       30.9120703699
  C        11.9542971156        5.5616942926       33.0984632408
  C        11.9387517521        5.9958031252       29.8632093804
  H        10.3447355454        7.3275317642       30.6119924445
  H        11.9157226349        7.6209218037       31.3394858241
  H        11.7010792939        4.6363312172       33.5921402123
  H        12.9391266185        5.3904545278       32.6031186962
  H        12.0235296754        6.2625594269       33.8926045395
  C        11.0170958260        5.2635429840       28.8837732464
  H        12.6161834138        5.2907792721       30.3186457829
  H        12.5058012626        6.7272526542       29.2779613285
  C        10.2241044645        6.0929119361       27.8904420811
  H        11.6603225349        4.4728050324       28.4181186987
  H        10.3205517793        4.6586794369       29.4895342501
  C         9.5149216205        5.1544183763       26.8367855246
  H        10.7699603437        6.7947379218       27.2836192926
  H         9.4582955316        6.6486422057       28.3571469642
  C         8.3179103426        5.8496573769       26.2455055014
  H        10.2274728861        4.8719623280       26.1030941001
  H         9.2922310179        4.2404605337       27.3587838974
  C         7.4004641634        4.9262330617       25.4144875123
  H         7.5755651015        6.4115263683       26.9442955161
  H         8.5889528410        6.6793003062       25.6107874578
  C         7.0558501592        3.6362110450       26.1576006246
  C         7.9775811242        4.2573846169       24.3322197235
  C         6.1134400858        5.7194289188       24.8555090282
  C         7.3676412170        2.5078863559       25.4001323174
  C         6.5584590153        3.3407897970       27.4095144231
  C         7.8779921091        2.8817853856       24.1738683796
  C         8.4032583571        4.8824630580       23.2290643776
  H         5.6850603053        4.9931793496       24.1220697266
  H         6.3816226416        6.6512875859       24.3650737581
  C         5.0144801284        6.0986992549       25.8630166155
  S         6.9833963871        1.0364788691       26.2155779589
  C         6.4063864318        1.9835833318       27.5942589682
  H         6.4015863590        4.1199483012       28.1063038022
  C         8.3140743771        2.2305452218       23.0408112500
  H         8.3303781406        5.9451467723       23.2804945456
  C         8.7514798820        4.2707882683       22.0604954146
  H         4.8525647509        5.4149554175       26.7082753430
  H         5.2346831312        6.9959298453       26.4102992606
  C         3.6418782957        6.1614056455       25.2521172604
  C         5.9694289639        1.3538975840       28.9854187576
  C         8.7141442718        2.9255673515       21.8950145003
  H         8.2425898754        1.1883522862       22.9369267037
  C         9.1397929615        4.6016766970       20.7996132585
  H         3.4650157742        5.2262125899       24.7813112351
  H         3.5177884771        6.9215375340       24.4984759386
  C         2.6624771701        6.3563399701       26.4449400247
  C         5.7952114881       -0.0260453844       29.2391752305
  C         5.4632504421        2.2607466733       30.0630442194
  C         9.0095138083        2.1523634077       20.6084907105
  C         9.2484844476        3.5117983688       19.9770001452
  S         9.6116321299        6.1003967274       20.0836558233
  H         1.8876281005        7.0619358865       26.2814713628
  H         3.3191770795        6.8233282474       27.2153715685
  C         1.8114458059        5.1149892529       26.7946191335
  N         6.0330634770       -1.0377110808       28.2964193007
  C         5.5570777011       -0.5748933987       30.5159159691
  C         5.1646820293        1.7484092144       31.3204850352
  H         5.3088751671        3.2854917450       29.8032730477
  C         7.7468904649        1.4504023742       19.9956168159
  C        10.3352637541        1.3354166112       20.6377189326
  C         9.7169281045        3.9094617164       18.7046695957
  C         9.9615132816        5.2597652494       18.6663919792
  H         1.1361135616        4.8808392912       26.0549908445
  H         2.4444498401        4.2194183013       26.8729222034
  C         0.9607847208        5.4136099914       27.9888568426
  S         6.0116211703       -2.5433342913       29.0111317772
  N         5.7546114225       -1.9996154096       30.5242155390
  C         5.2383279554        0.2840563357       31.5898765401
  H         4.9873295300        2.4226933899       32.0902640274
  H         7.5506193144        0.7147112103       20.6797541889
  H         8.0241017060        0.9808230921       19.0809233487
  C         6.5986001760        2.5086840419       19.8861481969
  H        10.5739080795        0.9137602256       19.5953675420
  H        10.1284395243        0.5124818626       21.3154694807
  C        11.6034573569        2.0940493094       21.1850657115
  H         9.6952476821        3.2432910337       17.8929184831
  C        10.2511132051        5.9782960318       17.3481955853
  H         0.4220588397        4.4086221237       28.1681198448
  H         0.3000512608        6.2429189254       27.7927411165
  C         1.9359552688        5.6945335872       29.1009338297
  C         5.0704940338       -0.3181258849       32.8888143037
  H         6.6379257885        3.2470701391       19.1959079323
  H         6.5853416531        3.1818939172       20.7091347247
  C         5.2291202097        1.8468498242       19.7447582292
  H        11.4142552371        2.2773547188       22.2946118818
  H        11.7976845441        3.1466834794       20.8115939152
  C        12.8772023531        1.3558436749       21.1650829059
  C        10.1352161712        7.3857902511       17.0792650304
  C        10.6412430046        5.0759462272       16.2611752930
  H         2.7832770404        5.0239172469       29.0113511025
  H         2.2562863123        6.7238418201       29.1075608834
  C         1.3043774685        5.4528480410       30.4351422734
  H         5.2199242028       -1.3895389041       32.7309942497
  C         4.6498368600        0.1096863255       34.1104419687
  H         4.5499565984        2.6960400198       19.8973482250
  H         5.0398928805        1.2345056661       20.6470077275
  C         5.0345384955        1.1095719073       18.4678484113
  H        12.8208844427        0.4623084230       21.7554184181
  H        12.9631712377        0.9703135652       20.1572152581
  C        14.0697558435        2.2268909933       21.5403638544
  N         9.7562930973        8.3649734010       18.0090879886
  C        10.5238715766        7.8961389483       15.8672163415
  C        10.9478611018        5.6253743803       15.0432027213
  H        10.6109900050        4.0050938209       16.4039284918
  H         0.5332813355        4.7889040858       30.2224137933
  H         2.0315913730        5.1879909410       31.1441149386
  H         0.9203083853        6.3977135805       30.9062848314
  S         4.4471918250        1.7798188527       34.5826412508
  C         4.7907967520       -0.8598187648       35.2148318863
  H         5.4451918543        1.7417329017       17.6858052088
  H         5.6219351981        0.1472590855       18.4603517432
  C         3.5457011621        0.9098218402       18.1903477407
  H        13.6822545367        2.7713347408       22.4157537493
  H        14.2485828986        3.0795496044       20.8995707026
  C        15.2834760527        1.3886156370       21.9578027433
  S         9.9615178839        9.8261123191       17.3309999486
  N        10.4414240988        9.3041737326       15.8996673574
  C        10.9879770632        7.1026658093       14.8058470487
  H        11.2389243892        4.9724278352       14.3243915271
  C         4.2845768075        1.0952853882       36.1622094822
  N         4.4574493590       -0.2778837190       36.3156466346
  O         5.1259083905       -2.0448384558       34.9906635486
  H         3.4288929759        1.0814674654       17.1042803095
  H         3.0280094548        1.6556090674       18.6935030013
  C         2.9580449023       -0.4096063990       18.7270595711
  H        15.3055224127        0.8494632519       22.9010272515
  H        15.3546713521        0.6563524676       21.1769256747
  C        16.5131373185        2.2575408548       21.9965756330
  C        11.3915449985        7.7179969134       13.6017622194
  S         3.7537014282        1.9769627149       37.5804152084
  C         4.3732421103       -0.9525218073       37.6062834791
  H         3.4311878584       -0.6559361554       19.7008184442
  H         1.8899228089       -0.2372328178       18.9147812213
  C         3.0793487646       -1.5100649868       17.6743919899
  H        16.4354800380        2.9722715294       22.7963007399
  H        16.7488757679        2.7504496477       21.0737876271
  C        17.6938374823        1.2650994830       22.3371366815
  H        11.2377026533        8.7293309815       13.5355900955
  C        11.8224147158        7.4816100944       12.3387510813
  H         4.0146578262       -0.3666151918       38.4168855474
  H         3.6646772927       -1.7435609026       37.6861476044
  C         5.7968251941       -1.2860973080       38.1020865642
  H         2.8053689493       -2.4691306208       18.1603166491
  H         4.1453893775       -1.4901478699       17.3886256505
  C         2.1735608899       -1.3456348023       16.4911621935
  H        17.4002718764        0.4539029988       22.8940335394
  H        18.0298256949        0.8858976634       21.4294781158
  C        18.7643515746        2.0740685087       23.0854478416
  S        12.2625132914        5.9633295433       11.7594222447
  C        11.9908925224        8.5763423637       11.3225137627
  H         5.6984389873       -1.5832349208       39.1343767353
  H         6.3638801044       -2.0537931218       37.5960409564
  H         6.3402054114       -0.3691625793       38.1291995108
  H         1.2322640742       -1.1406175770       16.9173176812
  H         2.1174130879       -2.3608885050       15.9753184301
  H         2.3269081617       -0.4653482286       15.7957615764
  H        18.8417559201        1.8864119257       24.1997179444
  H        18.6482049698        3.1661930147       22.8341370522
  H        19.6691818409        1.6567248692       22.6731403763
  C        12.6312534751        6.6903851463       10.2018541632
  N        12.4142438150        8.0295033667       10.1567133024
  O        11.7788697635        9.7370084682       11.5950659285
  S        13.3519834495        5.9436980831        8.7447624168
  C        12.6099045291        8.9405949316        9.0572778555
  H        12.9997411865        9.8886151120        9.3910704560
  H        13.3664107094        8.6622513936        8.2918110791
  C        11.3222754139        9.2794006897        8.3138528186
  H        11.3565649456        9.3097194218        7.2408275483
  H        10.6190473056        8.5226804083        8.5779844856
  H        10.9489161871       10.2657868248        8.4976309398
  H        -1.0034899914       12.7197995725       17.5213931829
  C        -1.5417803752       13.6319329108       17.1558325922
  H        -0.9052679189       14.4776565743       17.3897079189
  C        -2.8744029815       13.7640376026       17.9102809246
  C        -1.6756042826       13.6424468428       15.6133262799
  C        -2.5163597362       13.9907897625       19.3516647035
  H        -3.4117893065       14.5958216804       17.5093790903
  H        -3.4470902618       12.8223655421       17.8021960553
  H        -0.7500925659       13.6164507860       15.1296853169
  H        -2.2209939402       12.7996077341       15.2764397878
  H        -2.3617196400       14.4159360628       15.2017835445
  C        -2.1076570253       12.8005452482       20.1074066726
  H        -3.4213165773       14.4476868367       19.8294746175
  H        -1.5543270009       14.5571607692       19.4300704675
  C        -2.3826911223       12.8569383373       21.5788229053
  H        -2.6070557620       11.8509740896       19.8565344102
  H        -1.0374694057       12.6771746462       19.8407950389
  C        -1.3029819070       12.3319029677       22.5465363212
  H        -3.2840764707       12.2194209920       21.7820314789
  H        -2.6089293153       13.9254747245       21.7475079049
  C        -0.1684163526       13.2833333901       22.8496790107
  H        -1.7241768917       12.0407376124       23.5155130383
  H        -0.9144312352       11.4181784742       22.1818707593
  C         1.0143340372       12.6466735626       23.6058867568
  H         0.0993568736       13.7643693329       21.9063299068
  H        -0.6038915280       14.0164370011       23.4858476528
  C         1.4528154662       11.3283591094       22.9578253804
  C         0.6623168318       11.9086461523       24.8198631583
  C         2.2236747082       13.5821430381       23.8004647770
  C         1.3127117416       10.2453166512       23.7928316705
  C         1.9391595837       11.0405714459       21.6836029447
  C         0.9001520417       10.6301237794       25.0152292926
  C         0.0779509784       12.5850132814       25.8790175153
  H         2.3250286827       14.1038710844       22.8957943689
  H         1.8678901030       14.3111768197       24.5568063158
  C         3.5455445752       13.0014443103       24.2688205823
  S         1.8617377416        8.8236824335       22.9947307173
  C         2.1006606795        9.6913681690       21.5094041956
  H         2.0201081326       11.8906640544       20.9787370185
  C         0.5956015230       10.0022784725       26.2352927956
  H        -0.0609849861       13.5641203448       25.6424466343
  C        -0.1983617125       12.0384977590       27.0771237074
  H         3.8123621818       12.1375540548       23.6529067720
  H         3.5029478383       12.5693877826       25.2832241452
  C         4.7555227507       13.9788338105       24.1470267643
  C         2.4462017847        9.0166053868       20.2748315463
  C         0.0354132935       10.7170025107       27.2722181792
  H         0.8132644929        8.9789414991       26.3483521143
  C        -0.6247415070       12.4367308243       28.3235708339
  H         5.4809199889       13.6881865527       24.8248931421
  H         4.4882231931       14.9911659944       24.4085682732
  C         5.2390672302       14.1107414642       22.6973289502
  C         2.5517397396        7.6590779770       20.0280725851
  C         2.7401888707        9.8648805099       19.0581571005
  C        -0.2456476856       10.1143053376       28.5897088265
  C        -0.6561848569       11.4231708337       29.2410623965
  S        -1.0499887070       13.9658917500       29.0285972480
  H         5.7429155119       15.0316313906       22.3444715777
  H         4.4401284111       14.0959300323       21.9870459152
  C         6.1210699419       12.8383164393       22.5016673922
  N         2.3365511005        6.6513615136       21.0135550765
  C         2.8456272695        7.0963046161       18.8092607373
  C         2.8409632201        9.4000031710       17.8191866198
  H         2.8437553365       10.9143880899       19.1573030118
  C         1.0198374382        9.5043204482       29.2693838383
  C        -1.5263123843        9.2238575454       28.5743056404
  C        -0.9768616608       11.7994125563       30.5238203024
  C        -1.2310663900       13.1666183398       30.5683545453
  H         6.7386175856       12.5470895467       23.3204094877
  H         5.5876362317       11.9037800987       22.2570023509
  C         7.0961305215       13.1344185737       21.3729457491
  S         2.6022698299        5.2437693142       20.3297472714
  N         2.9465349003        5.6561577340       18.7725560076
  C         2.9976437821        7.9024142487       17.6266650202
  H         3.0864151010       10.0656077844       17.0216833524
  H         1.2954283281        8.6632365761       28.6246819398
  H         0.7111113609        9.0919390002       30.2259481430
  C         2.2081143259       10.4217865797       29.5954506924
  H        -1.4053100660        8.3987795823       27.8229367399
  H        -1.5597908788        8.7271735404       29.5292402198
  C        -2.8426157499        9.9731870663       28.2209767020
  H        -1.0547582258       11.0953852147       31.3430256684
  C        -1.6067196360       13.8767626350       31.7793415993
  H         7.8159850911       12.3394190209       21.0724197531
  H         7.8583421535       13.9369769653       21.5835793280
  C         6.3719565564       13.4086335226       20.0405129672
  C         3.2659926993        7.2681257814       16.3543630993
  H         2.3144334382       11.0063312351       28.6405392215
  H         1.9123944863       11.0881695959       30.4806448724
  C         3.4790453824        9.7482227800       30.0111397498
  H        -2.6254743609       10.7087540956       27.5505484686
  H        -3.2067164746       10.2950575541       29.1997967026
  C        -3.9460650811        9.0882774899       27.6609274642
  C        -1.6630351432       15.2672550183       31.9378463144
  C        -1.9235898777       13.1743670496       33.0303253021
  H         5.7496631522       12.5925319364       19.7456868056
  H         5.8878053613       14.3505100889       20.1152180417
  C         7.3868096352       13.4327421391       19.0111099319
  H         3.1874597124        6.1979808711       16.2685733565
  C         3.7472282435        7.6888319155       15.1175503903
  H         4.2697622878       10.3860404578       29.7346484940
  H         3.6833811209        8.9195643156       29.3254879356
  C         3.4672631343        9.3450611349       31.4532756098
  H        -3.7275692797        8.6787055246       26.7509980067
  H        -4.1940086278        8.3129590340       28.4296486816
  C        -5.1796971224        9.9287086266       27.4091677547
  N        -1.3193898963       16.1923251698       30.9254994502
  C        -2.0738394703       15.9231241016       33.1347800011
  C        -2.3270523903       13.7835822653       34.2226219580
  H        -1.8547482339       12.1259199541       33.1079290728
  H         8.2475066154       13.9960669377       19.4258180768
  H         7.7131511790       12.4589280611       18.9213452211
  H         7.0740253587       13.8543291112       18.0441463414
  S         4.0347107880        9.3178373212       14.6862292290
  C         3.8465895211        6.6933407761       14.0376293299
  H         3.4735491750       10.2014734021       32.1673342272
  H         2.4788014823        8.8599007985       31.7219945918
  C         4.6394447433        8.4364986064       31.6641530476
  H        -5.0807111533       10.9493423449       27.2120710635
  H        -5.6851707788        9.8430677342       28.2644104976
  C        -6.0845938402        9.3373633161       26.4128186406
  S        -1.5516599112       17.6661788067       31.4577039455
  N        -2.1198164596       17.3185407927       32.9682885795
  C        -2.4016439607       15.2318013902       34.3368070173
  H        -2.7432252879       13.0931907890       35.0043543212
  C         4.3999899044        8.7178502545       13.0854679236
  N         4.3660053926        7.3476832515       12.9568230269
  O         3.6757653317        5.4573498184       14.2005350401
  H         4.5785960440        8.3375098236       32.7453171944
  H         5.5273064784        8.9468831116       31.3620639521
  C         4.5862354037        7.0418150984       31.1230908732
  H        -5.4334726441        8.9072494940       25.6687599138
  H        -6.6567290250        8.5286176734       26.9962635775
  C        -7.0217371038       10.3908639960       25.8182338290
  C        -2.6796339507       15.9656367998       35.4903098287
  S         4.9821605076        9.5703445093       11.7085925657
  C         4.6245502699        6.6475384641       11.6937642343
  H         3.7130519013        6.4537747117       31.4880639975
  H         4.3805325752        7.0872154857       30.0759836730
  C         5.8658009721        6.2072823620       31.4326775178
  H        -6.6374146711       10.8169183365       24.8243606052
  H        -7.1468693195       11.2929433595       26.3878670127
  C        -8.3461488221        9.6918576844       25.4572673824
  H        -2.6821598526       17.0463454213       35.3984978937
  C        -3.0537735690       15.5887344302       36.7377806522
  H         5.2571298195        7.1132506943       11.0237398278
  H         5.0904885901        5.6401508009       11.8209754704
  C         3.3687600998        6.2112643175       10.8935534657
  H         5.4672068481        5.2293210496       31.6426093344
  H         6.2820632129        6.4894799437       32.4131106689
  C         7.0200755713        6.3734619275       30.3133277408
  H        -8.6113157172       10.1543290719       24.4805317170
  H        -8.2367037594        8.5970799959       25.3218341092
  C        -9.4872232983        9.9506075130       26.4449261192
  S        -3.7175501218       14.0522405675       37.1048591034
  C        -3.1193316455       16.5741168019       37.8839609419
  H         2.3512520828        6.2826579748       11.4100340441
  H         3.2314301109        6.8202456683       10.0263562287
  H         3.3468410308        5.3096354321       10.4013412979
  H         7.9599757258        5.8376269038       30.5193941172
  H         7.3706111093        7.4517397943       30.1702573185
  H         6.5828526110        6.0701701081       29.3482563267
  H        -9.9022923805       10.9764568726       26.2803117899
  H        -9.0082808025       10.0716132625       27.4342374396
  H       -10.3484224152        9.3053927475       26.4939606307
  C        -3.9950007321       14.7443429151       38.7061647118
  N        -3.8287827008       16.0522734896       38.8866021616
  O        -2.9400779729       17.7680326868       37.7233922964
  S        -4.6402278551       13.8083866878       40.0560754818
  C        -4.0681675939       16.7790794242       40.0880774893
  H        -4.2420421246       17.8328491705       39.9042680014
  H        -4.9952013782       16.3774555331       40.5700061440
  C        -2.7956500175       16.7316667913       40.9884664127
  H        -1.9825162578       16.1924715554       40.4394503910
  H        -2.4328770631       17.7577403289       41.2529336648
  H        -2.9695641291       16.2048144455       41.9523545137
