352
 i =    66500, time =    66500.000, E =        25.0427501434
  H        10.9163511195        4.1966858795       31.4882681310
  C        10.8787104026        5.2367421568       31.8365287891
  H         9.7874391590        5.4676326902       32.0450866699
  C        11.2866510257        6.1637450111       30.7027611030
  C        11.6932268630        5.3416427226       33.0772370724
  C        12.3243768607        5.5791225725       29.6758253545
  H        10.3716034405        6.3964036569       30.1171496334
  H        11.6927064308        7.1206464547       31.0051508726
  H        11.5223091543        4.6472852823       33.9312428255
  H        12.6501945671        5.0941677456       32.6455976469
  H        11.6442798251        6.3555016878       33.3799811938
  C        11.7668822727        4.7894509708       28.5096378136
  H        12.9802290079        4.9236618182       30.2524162591
  H        12.9400647347        6.4017402135       29.3076645893
  C        11.2346689143        5.6415071197       27.4014094447
  H        12.5661765340        4.0919682429       28.1739860408
  H        11.0429360530        4.0669661177       28.8595768425
  C        10.1232798264        5.0800324070       26.5153289972
  H        12.1073050512        5.9659889453       26.7880587307
  H        10.9361479874        6.5560581886       27.8251439852
  C         8.9139072140        5.9538568704       26.3449871396
  H        10.5659489824        4.9194874074       25.5976592307
  H         9.8785806043        4.0726342497       26.8579687490
  C         7.7657928046        5.2216248288       25.6135452472
  H         8.5791723993        6.3633277212       27.2470252949
  H         9.2092011705        6.8152530228       25.6759994463
  C         7.3688295302        3.9022743873       26.3059504157
  C         8.2592487648        4.5634096497       24.4183752430
  C         6.5176015242        6.1038697851       25.2129419770
  C         7.6973776053        2.8708404336       25.4416877083
  C         6.9388709385        3.5171325728       27.5970801024
  C         8.1342173529        3.2053286170       24.2128614485
  C         8.6472957852        5.2261894599       23.2463343978
  H         6.1410111408        5.5707137571       24.3464585222
  H         6.9188532982        7.0408918731       24.8100236946
  C         5.3492747596        6.3582569511       26.1699657993
  S         7.2428588902        1.3697551471       26.1647872572
  C         6.8055697017        2.1472564424       27.6621505822
  H         6.7851656189        4.2215078815       28.3986270416
  C         8.4247303334        2.5944120678       23.0435376333
  H         8.5637513933        6.2574976033       23.2366200293
  C         9.0496881343        4.6052362395       22.0799012887
  H         5.2840627929        5.7196556137       27.1070367020
  H         5.4301747162        7.3336618844       26.5717671682
  C         4.0895291999        6.4962972925       25.3506654761
  C         6.2834418803        1.3585873411       28.8756983562
  C         8.8984419390        3.2956477988       21.9293837409
  H         8.3412244019        1.5049086079       22.9024416807
  C         9.4280907996        5.0416059419       20.8000955380
  H         3.8580193128        5.6322890196       24.7149370336
  H         4.2986793437        7.3361810037       24.7656363883
  C         2.8294053622        6.7259128466       26.2292869906
  C         6.3909248792       -0.0054169486       29.1013614085
  C         5.6562716902        2.0849842695       29.9949863578
  C         9.1380283879        2.6312772287       20.6669554852
  C         9.5712013164        3.9583491552       19.9769121019
  S         9.7750706302        6.5092880342       20.0295868488
  H         2.0921396370        7.1056018466       25.4623063096
  H         3.0731585671        7.5816034770       26.9149506377
  C         2.3405809279        5.4225592962       26.8283111876
  N         6.9438882995       -0.8657103985       28.1942488090
  C         5.9478166597       -0.6470846523       30.2430712092
  C         5.3030465138        1.5154968801       31.2062532490
  H         5.5062535088        3.1842935599       29.8796866219
  C         7.8943679750        2.0394228165       20.1193341585
  C        10.2409225796        1.5959555767       20.8146644273
  C         9.8919692178        4.3743298670       18.6641255543
  C        10.0952042320        5.7468510205       18.5261557282
  H         1.6960437230        4.8716974483       26.1510900421
  H         3.1468050009        4.7976168246       27.1317625933
  C         1.4518795068        5.5579352778       28.0182048820
  S         6.8315792705       -2.3997254211       28.8094786171
  N         6.1675461767       -2.0589265021       30.2287026821
  C         5.3747771920       -0.0064113363       31.2888128813
  H         4.8727833071        2.0827583557       31.9905724318
  H         7.4038320946        1.5264316195       20.9764660451
  H         8.2492937599        1.3544107283       19.3558030362
  C         6.9224664400        2.9909026830       19.4701158158
  H        10.3897299776        1.2058078280       19.8263144550
  H         9.8072614765        0.7773995155       21.3915865490
  C        11.5018331274        2.2788529561       21.3227145720
  H         9.9054232002        3.5779075866       17.9090361790
  C        10.3747137599        6.4751048298       17.2008201228
  H         0.7434050692        4.7737758278       27.8259378797
  H         0.9139355304        6.4582850451       28.0367189139
  C         2.2712356651        5.4856432538       29.2631583014
  C         5.1930552319       -0.7121721017       32.5042094120
  H         7.2319181440        3.2594932532       18.4814574804
  H         6.9682759726        3.8818073425       20.1190438402
  C         5.4255767515        2.5740121720       19.3882234228
  H        11.4789758329        2.8200212510       22.2716442623
  H        11.7050023552        3.0505856992       20.6113433862
  C        12.7837252297        1.3809162818       21.4626318406
  C        10.4134540944        7.8709557185       17.0560379699
  C        10.5619371062        5.7375625081       15.9362942925
  H         2.8429078223        4.5666583986       29.3152785762
  H         2.9950449136        6.3487661788       29.3155551695
  C         1.3747702640        5.6315976077       30.4570127495
  H         5.1462462857       -1.7808466980       32.4032653556
  C         5.0114359166       -0.2872352667       33.8312760362
  H         4.9128095893        3.5173389918       19.1575873416
  H         4.9479684165        2.1311837249       20.2318633419
  C         5.1508907171        1.6868664957       18.2026853149
  H        12.6190702964        0.5315079247       22.1968569806
  H        13.0542274370        1.0853108646       20.4511378690
  C        13.9585084961        2.1059136965       22.0892079641
  N        10.2089662274        8.7167072897       18.0958029560
  C        10.6637120138        8.4900599027       15.8411003367
  C        10.9176010527        6.3434657102       14.7533060577
  H        10.5446090467        4.6822186602       15.8749139490
  H         0.9635146576        4.7330382639       30.8357239438
  H         1.9447841730        6.0581272335       31.2999715027
  H         0.7234443333        6.4819788753       30.1298452542
  S         4.9856553620        1.3754989193       34.4296691279
  C         4.8979060649       -1.3024089505       34.9255236249
  H         5.4805753941        2.1697913584       17.3095638595
  H         5.9054370011        0.9196230049       18.3105188220
  C         3.6515809468        1.1806342073       17.9647026744
  H        13.7098138800        2.4105541637       23.0712094132
  H        14.2704240511        2.9506861847       21.5438381251
  C        15.1763888745        1.1896450539       22.0472159977
  S        10.3852557307       10.2233212721       17.5552768981
  N        10.6397751680        9.8915951501       15.9388181913
  C        10.9481263078        7.8351873588       14.6806471249
  H        11.0773610333        5.7335142178       13.9014125155
  C         4.5800779715        0.6427760356       35.9755987093
  N         4.7397111033       -0.6919039636       36.0829246179
  O         4.8226133773       -2.5489248424       34.6970193990
  H         3.5192240562        1.0326771505       16.8874935504
  H         2.9040012289        1.9599657612       18.2106031569
  C         3.1646468846       -0.1123539902       18.6317141042
  H        15.1694019203        0.4252321910       22.8016894812
  H        15.3811409760        0.8483495532       21.0934093992
  C        16.3889717910        2.0089096471       22.2928181977
  C        11.2796068270        8.5512044965       13.4826847520
  S         4.3517625711        1.4757294607       37.4257445988
  C         4.7447840039       -1.4409490814       37.3022499064
  H         3.5278930984       -0.1064155882       19.6536338804
  H         2.1097273626       -0.1956005469       18.6231176193
  C         3.7143347146       -1.4297437927       17.9392406838
  H        16.3226523788        2.4849455184       23.2543446685
  H        16.5003626626        2.7716352640       21.5570061174
  C        17.6987022887        1.2292478754       22.3016221105
  H        11.3299336214        9.6113356308       13.6061421319
  C        11.6581577297        8.1519390503       12.2788559975
  H         3.9796430643       -0.9817595739       37.9115475028
  H         4.3532259838       -2.5153088360       37.1236887106
  C         6.1688137245       -1.5670114461       37.9587202095
  H         3.9736794558       -2.1169812579       18.7094431388
  H         4.6543814354       -1.2997366577       17.3361090184
  C         2.7179889724       -2.0514782057       17.0655716081
  H        17.7550378185        0.6457050367       23.1497627944
  H        17.5301357064        0.4598432561       21.5421755065
  C        18.9741667658        2.0553142398       22.1406613232
  S        12.0848948859        6.6414027817       11.6466778496
  C        11.7163743954        9.1856570651       11.2488960917
  H         6.4455331641       -0.5989732540       38.4104171379
  H         6.1621587464       -2.3950818852       38.6274619491
  H         6.8670135773       -1.7848149101       37.1759407728
  H         1.9370151634       -2.4372824377       17.6089018640
  H         3.1387539951       -2.7660497095       16.3644396579
  H         2.2700854170       -1.3116112197       16.4224535037
  H        19.1588456352        2.6722262368       23.0197945521
  H        18.8072066552        2.7594562715       21.3011777944
  H        19.8473424805        1.4234332152       21.9396101883
  C        12.2645957384        7.3879999246       10.0467336304
  N        12.1734684391        8.7098885585       10.1013345049
  O        11.4624246871       10.3902178566       11.5209363837
  S        12.8071517254        6.5083411210        8.6133541693
  C        12.4422997674        9.5890481603        8.9814237048
  H        12.7284256589       10.5530284186        9.3855438041
  H        13.2806057295        9.0846497491        8.3787131530
  C        11.2353770172        9.6785070693        8.0461435383
  H        10.3678337883       10.1533939557        8.5243139399
  H        11.4447439760       10.1444173592        7.1017911110
  H        10.8638423724        8.6785402542        7.9243802712
  H        -2.1207939907       12.9877297571       16.7786709126
  C        -2.1075923126       14.0694772759       16.4432772666
  H        -1.2009795833       14.6556722272       16.6180649365
  C        -2.9925169111       14.8460562616       17.3584508166
  C        -2.3310581092       13.9783302194       14.9560642474
  C        -2.5996664996       14.9748170481       18.8320894953
  H        -3.2059222029       15.7480678060       16.9436165165
  H        -3.9925693107       14.5137290502       17.3453119596
  H        -1.4360150432       13.6833510243       14.6053818010
  H        -2.9775902105       13.1659218156       14.7659068239
  H        -2.8409770470       14.7917873897       14.4219473433
  C        -1.7665186232       13.8765105293       19.5324374716
  H        -3.4540681802       15.1597332331       19.5048501488
  H        -1.9318898733       15.8725348650       18.8628393519
  C        -2.0205531701       13.6650808476       20.9999683876
  H        -1.9687373759       12.8960355049       19.1572336893
  H        -0.7108123271       14.0103349061       19.2597019579
  C        -0.9993056611       12.9358837744       21.8967977117
  H        -3.0140674634       13.3175589083       21.1506558560
  H        -2.1257811828       14.6698036077       21.3939801328
  C         0.1450694170       13.8783325574       22.3026040028
  H        -1.5037028991       12.4521143183       22.7627924239
  H        -0.7048481088       12.1010504656       21.2925387056
  C         1.3502656546       13.1861113816       22.9706116831
  H         0.6218313071       14.1233308570       21.3803590619
  H        -0.2035866673       14.7171446942       22.8798645666
  C         1.6757577757       11.8485935667       22.2569437678
  C         0.9401351827       12.4110292643       24.1923707012
  C         2.6152017646       14.1585484237       23.0432610548
  C         1.3760812053       10.7118549485       22.9861347867
  C         2.2348974791       11.4323825261       20.9898602912
  C         0.9886726995       11.0654280304       24.2354274167
  C         0.5520088266       13.1229389333       25.3527342420
  H         2.8834335472       14.3976774696       21.9566170155
  H         2.3101161192       15.0860414166       23.5772866919
  C         3.8570463831       13.4377214862       23.7355841771
  S         1.8549430886        9.2229041131       22.2011420458
  C         2.4369530043       10.0823374687       20.8708074337
  H         2.5427723684       12.2656657145       20.3419851288
  C         0.6523824566       10.4433750153       25.3955370041
  H         0.5077916946       14.1285764621       25.2723243353
  C         0.2077810486       12.4991460505       26.5383446992
  H         4.2171660673       12.5389628987       23.2421464552
  H         3.4299705159       13.0960333441       24.7074957412
  C         5.0374882676       14.2959968934       24.1207028889
  C         3.0495987293        9.4745209382       19.6745717712
  C         0.2569171162       11.1555271486       26.5525353046
  H         0.6829685297        9.2964770506       25.4372742817
  C        -0.1754900369       12.7984761499       27.7798393268
  H         5.5976097963       13.6956785690       24.8226018944
  H         4.7203314002       15.1367607240       24.6859909584
  C         5.8549921084       14.6307409773       22.8171084249
  C         3.1096290883        8.1149032407       19.4194498896
  C         3.4338809382       10.3494649185       18.5590818508
  C        -0.1561372611       10.3508858232       27.7969692621
  C        -0.3829084714       11.6708785301       28.5463536615
  S        -0.4264283693       14.2656740710       28.6292890587
  H         6.6194886585       15.3929080473       23.1795272194
  H         5.1575903083       15.1321564451       22.0595781730
  C         6.7261986664       13.4581825402       22.3972619447
  N         2.8546161671        7.1813625443       20.4329236426
  C         3.5092220467        7.5799938675       18.2015420145
  C         3.7284335518        9.8549965353       17.2826320749
  H         3.3080906189       11.3577804675       18.7743641109
  C         1.0051761808        9.4498948483       28.4430529532
  C        -1.4743145879        9.5850585382       27.6383714849
  C        -0.8383476085       11.9957916705       29.8584370453
  C        -0.8997672656       13.3456010661       30.0948412455
  H         7.2617153757       13.1911725975       23.2854622809
  H         6.1501280158       12.5106430311       22.2622168493
  C         7.5227881880       13.6969751894       21.0896282861
  S         2.8442814155        5.7366203695       19.7631355721
  N         3.4584380892        6.1851271937       18.2765653873
  C         3.8213467488        8.3780052169       17.1011977682
  H         3.8567851311       10.5653851716       16.4920267675
  H         1.3553997696        8.7537001660       27.7022578916
  H         0.5657836803        8.6914464719       29.1630112277
  C         2.1264489687       10.2748855657       29.0349361038
  H        -1.4262393620        8.8464861955       26.8170816891
  H        -1.6263946632        9.0675138009       28.5642022088
  C        -2.7515431059       10.5015084579       27.2877189076
  H        -1.0857421055       11.1902317569       30.5168433412
  C        -1.2785426374       14.0515863061       31.3469204179
  H         8.1694832149       12.8008099552       20.9180111594
  H         8.1529980119       14.5760214704       21.1590065561
  C         6.7326256536       13.8253435432       19.7113035265
  C         4.0694674109        7.7414043660       15.8373888086
  H         2.4983628330       11.1162854186       28.4562780128
  H         1.5956645975       10.7051324584       29.8929677207
  C         3.2608303929        9.3513848896       29.6031297035
  H        -2.7225994705       10.7532028292       26.2539165899
  H        -2.7359064416       11.3738217802       27.8825422785
  C        -3.9765762823        9.7337373473       27.5347752018
  C        -1.2877636916       15.4516583912       31.5462011498
  C        -1.3131278791       13.3325198080       32.6843862404
  H         5.9206349756       13.1232917431       19.4959694682
  H         6.0629577494       14.6815660358       19.8261181285
  C         7.7006620778       14.0606359653       18.5905601296
  H         3.9776002122        6.7035349886       15.9283010479
  C         4.3304304725        8.2354747937       14.6071201118
  H         3.8799273409        8.9191248440       28.7815766155
  H         2.7837997220        8.3692141837       29.9626844670
  C         4.0778059412       10.0660007569       30.7242185150
  H        -3.9013662815        8.8964371974       26.8847829939
  H        -3.9197596247        9.2291600407       28.5382351810
  C        -5.2734525382       10.4864409054       27.3814123333
  N        -0.9715922090       16.3898780183       30.5538975982
  C        -1.6096478803       16.1275820542       32.7157967563
  C        -1.6106679579       13.9620871128       33.8781512333
  H        -1.0369412690       12.2784715036       32.6950764432
  H         7.8840345985       15.1695675439       18.4839153655
  H         8.5934879554       13.4862952857       18.6069770848
  H         7.1751756525       13.7549675932       17.6691803400
  S         4.6485276231        9.9111595581       14.1513671929
  C         4.2591601843        7.2683294865       13.4428579044
  H         4.2506344192       11.0862996340       30.3836470035
  H         3.3771881265       10.1582198984       31.5886343292
  C         5.5081757072        9.4635494613       30.9358405222
  H        -5.0761657094       11.4440775614       26.8853161014
  H        -5.8566212093       10.6668715257       28.2756832183
  C        -6.2488772339        9.8304743129       26.3815521514
  S        -1.2419147216       17.8427927106       31.0474024958
  N        -1.6755786227       17.4694196750       32.5681306884
  C        -1.8483755533       15.4369131527       33.9211932892
  H        -1.4641831275       13.3900675938       34.7871404931
  C         4.7649338832        9.2211204954       12.5511932059
  N         4.5840715660        7.9422129430       12.3541269452
  O         4.0493098736        6.0805521839       13.6081427124
  H         5.9912388939        9.9794957327       31.7724422915
  H         6.1576593201        9.6648875333       30.0939303957
  C         5.4241437676        8.0315340139       31.1750978628
  H        -5.8297314995        9.2854930457       25.5406001558
  H        -6.7436801892        8.9750094504       26.9072770530
  C        -7.2333267225       10.8616760398       25.9080492939
  C        -2.1929189828       16.2114001767       35.0582725060
  S         5.0309904421       10.1865780565       11.0282467648
  C         4.5445789015        7.2071113934       11.0643637585
  H         4.7645455084        7.8305087296       32.0513887727
  H         4.7711025004        7.5127214734       30.4949417498
  C         6.7016300721        7.3064292993       31.2367374289
  H        -6.7747913326       11.6022699634       25.2220444034
  H        -7.5980555902       11.6014569702       26.6512178061
  C        -8.3794215619       10.1720327765       25.0696029211
  H        -2.0342659905       17.2364072156       34.8546758007
  C        -2.6964367955       15.8845576013       36.2945499882
  H         5.1294521182        7.6182373069       10.3367788831
  H         4.6955562717        6.1541699782       11.1856766679
  C         3.1701834248        7.2109857380       10.4545778837
  H         6.6915186060        6.6206921717       32.1217313406
  H         7.4695877648        8.0113569583       31.3223878009
  C         7.0045648382        6.4242732368       30.0128360168
  H        -8.8674344737       10.7471638545       24.3016795513
  H        -7.9394928016        9.3481587284       24.4641970337
  C        -9.5954659205        9.8564163509       25.9254548861
  S        -3.1899955114       14.3397072014       36.8252355202
  C        -2.8705754816       17.0236762198       37.2617701884
  H         2.8220596678        8.2392170025       10.7684154273
  H         3.0473066675        7.1815475193        9.3236238513
  H         2.6382622072        6.3331643821       10.9608751120
  H         7.9444193545        5.9482772629       30.0000888599
  H         6.8514904173        6.9875339184       29.0963344789
  H         6.1756314309        5.7439881170       29.8312070625
  H       -10.0185390397       10.6923441584       26.5110908110
  H        -9.4105648733        8.9939316002       26.6091487752
  H       -10.3933538370        9.5940574728       25.2446318020
  C        -3.5471659218       15.2280839830       38.3544766430
  N        -3.5067733669       16.5867863276       38.3291450402
  O        -2.5981204198       18.2353713458       37.0407256261
  S        -4.3510675164       14.5658951052       39.8082906224
  C        -3.6712178756       17.3597648133       39.5322699367
  H        -4.0352112086       18.3127513576       39.1812378858
  H        -4.5249203827       17.1394232481       40.1480751015
  C        -2.2892833393       17.3599632067       40.3123115221
  H        -1.5109429872       18.0233663535       39.8381850464
  H        -2.5429585224       17.7477096308       41.3171893131
  H        -1.8586060018       16.2962905447       40.3704253803
