352
 i =    60700, time =    60700.000, E =        25.0411937064
  H        10.3680671011        4.8492870264       31.5807214422
  C        10.8722012825        5.7391667753       31.9472217324
  H        10.0776220742        6.3902998683       32.1367263676
  C        11.7836574328        6.4175486729       30.8782023201
  C        11.5099981440        5.4594304074       33.3060375297
  C        11.7382287311        5.7825393516       29.4396147469
  H        11.6579010792        7.4689275916       30.9134413855
  H        12.8300227954        6.4020750711       31.2212689360
  H        10.9357777003        4.6592085032       33.8376353391
  H        12.4789386501        4.9733536778       33.2479405359
  H        11.4226565935        6.3776231905       33.9314906888
  C        10.4572342344        5.9519559968       28.6847568502
  H        11.9127764841        4.7176323826       29.4985070444
  H        12.5687724259        6.2238178837       28.9428140470
  C        10.7389085372        5.7821184040       27.1521110345
  H         9.7579913547        5.1917906201       28.9329838387
  H        10.0031350555        6.9149070255       28.9105574756
  C         9.6409982553        5.0303254297       26.3568402815
  H        11.6529194512        5.2650057249       26.9766830088
  H        10.9740923561        6.7091438447       26.7144907337
  C         8.3901277426        5.9616096108       26.0810404840
  H        10.0722545516        4.6456948608       25.4359692008
  H         9.3664992601        4.2416439848       27.0491036822
  C         7.2444472580        5.1568447508       25.4618923635
  H         7.9349016149        6.4459160712       27.0045532223
  H         8.6597185072        6.7300975966       25.4025938677
  C         7.0061551705        3.8777515367       26.2405555692
  C         7.6402998741        4.3909414890       24.2629787757
  C         5.9446334650        6.0026580894       25.1728350015
  C         7.1608708559        2.7661939233       25.4330767821
  C         6.5594939623        3.5035820113       27.4885066036
  C         7.5526443634        3.0705612313       24.2036919110
  C         8.0186583821        5.0853295064       23.1126164534
  H         5.4619155431        5.4695687417       24.3341459570
  H         6.3045011781        6.9417601409       24.7668052585
  C         4.9172349532        6.2928635894       26.3047066184
  S         6.8139551365        1.2296224502       26.2573525041
  C         6.3744472705        2.1727518874       27.6735110068
  H         6.2403384021        4.3404226389       28.1211163181
  C         7.9710695556        2.4313602386       23.0204830246
  H         7.9240745635        6.1684843127       23.2089087180
  C         8.4418113996        4.5166796613       21.9387807627
  H         5.0763966681        5.6811612387       27.1601442055
  H         4.9515529947        7.3180324380       26.6614796282
  C         3.5417985846        6.0214875358       25.7409387765
  C         5.8622110731        1.5100773042       28.9993112298
  C         8.4160022721        3.1593911913       21.8720054683
  H         7.9031502936        1.3611521043       22.9013396333
  C         8.8305826126        4.9050161046       20.6825807962
  H         3.3503174336        5.0142660044       25.4076212524
  H         3.4097874967        6.6543228128       24.8620427991
  C         2.3244264677        6.1693421931       26.6812865802
  C         5.7756165838        0.1365170977       29.2870579053
  C         5.3969594335        2.4271634023       30.0250715414
  C         8.8221597389        2.4296519707       20.6213041767
  C         9.0148772609        3.8063448616       19.9316161297
  S         9.0435031976        6.4106795309       19.8455581792
  H         1.5699551935        6.8113390026       26.1760609659
  H         2.5816657072        6.5876509686       27.6375579645
  C         1.7432797043        4.8125754007       27.1563167016
  N         6.2825192611       -0.9168751181       28.4585590638
  C         5.4497626568       -0.3772633015       30.5285890144
  C         4.8575422454        1.9280057086       31.2360131468
  H         5.4543581278        3.5093159933       29.7933176651
  C         7.6406809047        1.6160681424       20.0808307504
  C        10.1314023334        1.6504764592       20.7615762645
  C         9.4105990200        4.1741220918       18.5979952648
  C         9.4687710967        5.5404662308       18.4460492034
  H         1.1661054643        4.3518118674       26.3114814172
  H         2.5245357791        4.0831701878       27.4987498334
  C         0.7540920172        4.9713934497       28.2953793377
  S         6.1899948747       -2.3419071954       29.1759128241
  N         5.5516347889       -1.7953577172       30.5711718572
  C         4.9034512293        0.4265485680       31.4952969629
  H         4.5193280344        2.5972503432       32.0374097871
  H         7.3304606346        0.7479697583       20.6986586491
  H         7.9835461660        1.1545212718       19.1767774532
  C         6.3939229354        2.4603828220       19.6833821138
  H        10.3183315148        1.2160201281       19.7587198813
  H         9.9279405432        0.8364988765       21.3686560766
  C        11.4123472689        2.4006834527       21.1008712051
  H         9.5571393391        3.4465228532       17.8164922551
  C         9.7589835782        6.2434485227       17.1615376406
  H         0.3328069149        3.9912766618       28.4504954634
  H        -0.0403810507        5.6234384316       27.9645244788
  C         1.3242913676        5.4219979705       29.6463714587
  C         4.4145353396       -0.2595644599       32.6700120782
  H         6.6114287556        3.3216177389       19.1451744149
  H         5.7244558822        2.9030800058       20.5133029596
  C         5.4971537726        1.6810036749       18.7819315287
  H        11.3985742895        2.9602214196       22.0036301781
  H        11.5461713717        3.1033975107       20.3057995530
  C        12.6304602067        1.4633924871       21.1854195867
  C         9.8779450409        7.6375651811       17.0217466869
  C         9.9934029561        5.4453378290       15.9425865967
  H         2.3029818651        4.9779515490       29.8787429110
  H         1.4296996583        6.5230475763       29.5093147253
  C         0.3264156673        5.2312399865       30.7446105966
  H         4.3691289831       -1.2838894225       32.6268252783
  C         4.1425728751        0.2063774131       33.9336803382
  H         5.1833711707        0.7371660240       19.2462581294
  H         6.0772906134        1.3197101305       17.8568517820
  C         4.4001490721        2.5029853773       18.1570432829
  H        12.4385918405        0.7341376266       21.9803450963
  H        12.6856635312        0.8608496716       20.2885953546
  C        13.9740445480        2.2055899723       21.3760525087
  N         9.5756894340        8.6289057245       17.9614562226
  C        10.0835169718        8.1980048017       15.8155771343
  C        10.3299143492        6.0349987461       14.7819470081
  H         9.9211410913        4.4063313686       16.0315143272
  H        -0.5463271997        4.6679015083       30.6192738116
  H         0.7882469124        4.8233576276       31.6546408720
  H        -0.1098967636        6.2111777360       31.0029601663
  S         4.0092977268        1.8624613890       34.3858150480
  C         3.8917958974       -0.7861654430       35.0471124613
  H         4.2886026163        3.5848085303       18.4991107825
  H         4.6350741384        2.6250197731       17.1287014963
  C         3.0524661331        1.8249625582       18.2645205864
  H        13.9896426741        3.2092472593       20.9980777789
  H        14.7093522372        1.6764401184       20.8639332808
  C        14.0608526272        2.3246043058       22.9255137378
  S         9.4901082564       10.0446718603       17.2656648206
  N        10.0768557781        9.6232434074       15.8913150164
  C        10.3552646831        7.5026916098       14.6156429947
  H        10.4248417460        5.3513396304       13.9370843368
  C         3.7993810479        1.2418759461       36.0306522731
  N         3.7732129017       -0.0814805866       36.1805944706
  O         4.1804548597       -1.9872968108       34.9447223809
  H         2.2526576695        2.5311910365       17.9543959745
  H         2.7518145440        1.6063631996       19.2583163533
  C         2.8841042828        0.5999822477       17.3714568736
  H        13.2168411290        2.7782388582       23.4296284760
  H        13.8651111593        1.3130070046       23.3844995994
  C        15.1977864242        3.1183304165       23.5082781636
  C        10.4480491461        8.2207062203       13.3656708349
  S         3.2130195822        2.0931866958       37.4567669885
  C         3.7121581472       -0.8722202606       37.4561623819
  H         2.9153452620        0.8285541750       16.3348221217
  H         3.8187928445       -0.0737815760       17.4652376553
  C         1.6171031669       -0.1830276829       17.6536549757
  H        14.8981730723        3.4026467417       24.4880932311
  H        15.4569951597        3.9872327846       22.9471918367
  C        16.4668839129        2.1312160429       23.5325569454
  H        10.1008552508        9.2076663042       13.4104797042
  C        11.0214066312        7.9522826720       12.1601240670
  H         2.8431515904       -0.5349870943       38.0506038390
  H         3.5642985439       -1.9773194976       37.3586214642
  C         4.9958085604       -0.6348390907       38.2135152841
  H         1.1217822620       -0.1956556240       16.6978620981
  H         1.0456929037        0.5106597894       18.2493901586
  C         1.8036552762       -1.5985535659       18.2297126120
  H        16.7800029533        1.9995611489       24.5272250708
  H        16.0949365942        1.1040475448       23.3056077282
  C        17.5808628985        2.4473358562       22.5348208422
  S        11.7070964977        6.4803122744       11.6138040367
  C        11.1946668772        9.1751600248       11.2732383837
  H         4.8692112118       -0.1112181627       39.1467123078
  H         5.4677513913       -1.6519196410       38.4170577228
  H         5.7246511443       -0.2218628098       37.5448720015
  H         1.5623259618       -1.5433119540       19.2674496650
  H         2.8464541290       -1.8818941959       18.2251288541
  H         1.1050654252       -2.3448174404       17.8023450619
  H        17.3183024086        2.1161361766       21.5127610207
  H        18.4956986289        2.0483671181       22.9796037650
  H        17.8311288293        3.4911091869       22.4338847755
  C        12.2621887643        7.3855030500       10.2281213959
  N        11.9149391301        8.7193600604       10.2142035896
  O        10.6865029539       10.3170756810       11.3012032363
  S        12.8863801453        6.6046206647        8.7374796782
  C        12.1777343532        9.5539159944        9.0365646348
  H        12.4803842442       10.5715139511        9.1971813464
  H        13.1785109411        9.1694362302        8.7371421577
  C        10.9790315171        9.5528906495        8.0875072886
  H        10.1991707542        8.8457720995        8.2277139423
  H        10.4831338884       10.4779740151        8.3182085257
  H        11.1904397752        9.5615342337        7.0140830229
  H        -4.4086754341       13.5957798877       16.6502489816
  C        -3.3769400316       13.7058051516       16.8665460431
  H        -2.9896411189       12.7529197039       17.2649591484
  C        -3.0165697478       14.7269582612       18.0199945635
  C        -2.7044756680       13.8635652339       15.5218669185
  C        -3.4762259792       14.1677235045       19.3011672227
  H        -1.9692646520       15.0519849804       18.0360327597
  H        -3.6236837840       15.6271706312       17.8079338182
  H        -3.0595681671       14.7296801223       15.0188935584
  H        -1.6755269885       14.0044129372       15.7792665816
  H        -2.9121602316       13.0654530344       14.8391770064
  C        -2.3431871371       13.7090128678       20.3009284044
  H        -4.1984590830       13.3030119044       19.2440271040
  H        -3.9038996695       14.9425632024       19.9383983141
  C        -2.6813642242       13.7807755279       21.7842116579
  H        -1.9831497093       12.7206961748       20.0940587016
  H        -1.4737406874       14.3990502566       20.1186415879
  C        -1.7092562010       13.0131606358       22.6111269910
  H        -3.6108489033       13.1889977472       21.9866583885
  H        -3.0027345424       14.7148217977       22.1810333286
  C        -0.3820075767       13.8160903383       22.7448396157
  H        -2.0317566269       12.8548634089       23.6622877750
  H        -1.4111613512       12.0996914414       22.0687257609
  C         0.7900953036       12.9758659033       23.4799632820
  H        -0.0194379464       14.2321698438       21.7608493293
  H        -0.5453003576       14.7715429974       23.2426877981
  C         1.1416510793       11.6790113450       22.7698724553
  C         0.3165510388       12.1519927221       24.6316348673
  C         2.0243351608       13.8848225203       23.7910529894
  C         1.0257856796       10.5280596073       23.5250416134
  C         1.6455363105       11.4194253474       21.5074810645
  C         0.4609890198       10.8131760599       24.7428642705
  C        -0.2654988317       12.7610105956       25.7251250761
  H         2.3375033525       14.3967423072       22.8720819387
  H         1.5775165968       14.7532877261       24.3287023613
  C         3.3614251521       13.3729238206       24.3889612652
  S         1.4476227735        9.0919792649       22.7087234657
  C         1.7790650825       10.0582990742       21.2805096621
  H         1.7015519815       12.2114967576       20.7826154265
  C         0.0246872065       10.1360472667       25.8209133185
  H        -0.3844622706       13.8536104308       25.6431893172
  C        -0.5446604742       12.1286780101       26.8873503481
  H         3.6768922688       12.6037272670       23.7164277179
  H         3.1122193542       12.9358285653       25.3124814715
  C         4.5003923394       14.3729941718       24.5972273473
  C         2.1611816352        9.3331236191       20.0019924181
  C        -0.5371901651       10.7795585237       26.9709396997
  H         0.0190042902        9.0705920777       25.8289253566
  C        -0.9539197932       12.4893993821       28.1426938302
  H         5.0940643060       13.9763822970       25.4547386465
  H         4.2754048335       15.2407428824       25.1011413224
  C         5.4291387132       14.4461336106       23.4701007140
  C         2.2589470177        7.9330978489       19.8613428211
  C         2.5900529633       10.1319456415       18.8433718544
  C        -0.9528452611       10.0091868999       28.2403135030
  C        -1.2759851070       11.3844399665       28.9027225726
  S        -1.1815841178       14.0363336424       28.8834319910
  H         6.0820054149       15.2240602134       23.6630972615
  H         4.8050493190       14.8160898314       22.6137983359
  C         6.2837928568       13.2235370260       23.0949904926
  N         1.8767659387        6.9392459666       20.7651011504
  C         2.5057727705        7.3619313015       18.6361158345
  C         2.7702737988        9.6639498025       17.5825267688
  H         2.4767147785       11.1756210425       18.8656828581
  C         0.2205502196        9.1423507901       28.9133257952
  C        -2.2371104916        9.2847841780       28.0520479114
  C        -1.7993800856       11.8190848332       30.1200971838
  C        -1.7581192450       13.2027107658       30.2517097848
  H         6.9801463739       12.9452047643       23.9359329187
  H         5.7629142754       12.3158276259       22.9913738370
  C         7.1155423837       13.5672061209       21.8953216007
  S         2.3189664531        5.5059309533       20.1698001001
  N         2.6141926224        5.9579352401       18.6482283621
  C         2.6686956628        8.1953942324       17.4159875254
  H         2.8373139043       10.2933918792       16.7652098476
  H         0.3748956780        8.3404654277       28.1628564092
  H        -0.1882257491        8.6689389548       29.8328098590
  C         1.4757834276       10.0880265738       29.1452707859
  H        -2.1513524864        8.5981807531       27.2290727069
  H        -2.4781488620        8.7182574055       28.9169936878
  C        -3.4686220709       10.1177837638       27.6408148242
  H        -2.2854479832       11.1378434015       30.8620675557
  C        -2.1418207199       13.9673280165       31.5302821668
  H         8.0079364823       13.0757466130       21.9891476691
  H         7.4920186987       14.6286186679       21.9513288882
  C         6.4350536935       13.4847823616       20.5136416208
  C         2.9345987346        7.6059131896       16.1775439813
  H         1.6906023891       10.5237903017       28.1170534725
  H         1.1233073647       10.8917954022       29.7620573110
  C         2.6550526882        9.1790476710       29.6339281419
  H        -3.2839188136       10.7486500615       26.7440657759
  H        -3.8524797091       10.7090633144       28.4718443641
  C        -4.6703323819        9.2904706160       27.2758268671
  C        -1.9641910987       15.3701330974       31.7572398865
  C        -2.4391993861       13.1870321755       32.7761712584
  H         5.8340255602       12.6520890314       20.4963794023
  H         5.6434966980       14.1671372189       20.5556271800
  C         7.4728389021       13.6502398801       19.3401629798
  H         2.8026640102        6.5817685611       16.2202645609
  C         3.3714302227        7.9618970872       14.9470525325
  H         2.9921999417        8.4539032364       28.9021351530
  H         2.3536046862        8.4698846996       30.4593747562
  C         3.8946892269       10.0161773507       30.0525904456
  H        -4.3915361917        8.7872914957       26.3856132832
  H        -4.9276480014        8.5394596635       28.0156728234
  C        -5.8125315526       10.2119995755       26.9871278600
  N        -1.5861116624       16.3212187093       30.7394790170
  C        -2.3252686682       15.9916391656       32.9176761480
  C        -2.7180212451       13.7946129941       34.0078894767
  H        -2.4448768885       12.1146648459       32.7353781153
  H         7.3212395329       12.9991980723       18.5054621756
  H         7.3811451160       14.7032608643       18.9599599327
  H         8.4588563885       13.6614572876       19.7793116051
  S         3.6962585321        9.5666712725       14.4452171447
  C         3.4719791988        6.8494731093       13.9513342215
  H         4.0272847040       10.7858077376       29.2825999054
  H         3.7216063444       10.5960008763       30.9905329680
  C         5.1556355710        9.1818804846       30.1378184187
  H        -5.5310631548       11.1787868190       26.4193410618
  H        -6.2449121826       10.5740645670       27.9052385210
  C        -6.8763854116        9.4493374701       26.2439005060
  S        -1.8034290930       17.8301520695       31.4237488720
  N        -2.2919200463       17.3739684234       32.9161003003
  C        -2.6111622627       15.2511289850       34.0977955464
  H        -3.0438629411       13.1880080358       34.9156655876
  C         3.8366965797        8.8170358449       12.8685506501
  N         3.8136408701        7.4700191275       12.7824289667
  O         3.2516336363        5.6511631984       14.1733650120
  H         6.0045560934        9.8253137930       30.3128132719
  H         5.3788784054        8.7964296171       29.1857262400
  C         5.1132866152        7.9799385719       31.1461488569
  H        -6.4313253917        8.7821342371       25.4215454946
  H        -7.3305033124        8.8483009424       27.0964475458
  C        -7.8453339891       10.4123200125       25.5968674760
  C        -2.7855603961       16.0242690244       35.3166733449
  S         4.1711385281        9.6022687388       11.3953168358
  C         3.8380475897        6.7274781274       11.5170377945
  H         4.5060662516        8.3750374506       31.9558171980
  H         4.4258048538        7.2323676807       30.7478956616
  C         6.4746600018        7.2539089322       31.4512924686
  H        -7.1947399764       10.8312918798       24.8383069077
  H        -8.1989962546       11.1888090340       26.2514878736
  C        -9.0922080283        9.6790024390       25.0350425825
  H        -2.4341844602       17.0378306465       35.3628122511
  C        -3.3791307222       15.7322238260       36.5387021938
  H         4.6871198043        6.9746221602       10.8147896756
  H         4.1435482541        5.7044336952       11.7251395230
  C         2.4462750146        6.7262296745       10.8363059182
  H         6.3322475803        6.6482676411       32.3396926568
  H         7.3100051245        7.9478549987       31.5950229248
  C         6.8322846049        6.3131211343       30.3277147631
  H        -9.5284971719       10.3389625654       24.2795435241
  H        -8.8564716268        8.7274981470       24.5575621545
  C       -10.0849201644        9.6227554797       26.2192398967
  S        -4.1356285337       14.2752672869       37.0746954559
  C        -3.5249130254       16.8787814811       37.4646043853
  H         2.6908462974        7.3933940776        9.9529067906
  H         2.1457066929        5.7414895913       10.4367652079
  H         1.5047754329        7.1301935087       11.2495099142
  H         6.1453922252        5.4467265382       30.2459781396
  H         7.8668098498        5.9661761507       30.4067672292
  H         6.6988130158        6.8620667909       29.3837021182
  H       -11.0852583958        9.2569888671       25.9162138381
  H       -10.2806558163       10.5314450007       26.7344723415
  H        -9.9391597611        8.8390427697       26.9236072957
  C        -4.3917581531       15.1235281112       38.5923988560
  N        -4.1205942319       16.4582413988       38.5247650562
  O        -3.1305229640       18.0129323742       37.1764960980
  S        -5.0383550508       14.4991686289       40.1016188355
  C        -4.3767036405       17.3066790162       39.6557990325
  H        -4.6072644260       18.3289211151       39.3030186670
  H        -5.2709078775       16.9758740662       40.2299967770
  C        -3.1784050965       17.4159977459       40.5922310177
  H        -2.8738817816       18.4361263883       40.8178261780
  H        -3.2982978486       16.8966736428       41.5476082662
  H        -2.2378839487       17.0276390539       40.1320853658
