352
 i =    42900, time =    42900.000, E =        25.2729084876
  H        11.9496576953        6.9776513822       32.0112426456
  C        11.2680809869        6.0298734419       32.1182414595
  H        11.8481528128        5.2300180314       31.7344788589
  C        10.0985857250        6.1571937449       31.1697165430
  C        10.7505537871        5.7307694336       33.5146129350
  C        10.3119987347        6.3920893072       29.7172015881
  H         9.3658549127        5.3762247840       31.2093273920
  H         9.6282749840        7.0549346683       31.5152945894
  H        11.4002998737        5.9388651685       34.3232981395
  H         9.7355545747        6.1338124143       33.6108734359
  H        10.5349510066        4.6830274897       33.7040701078
  C        10.7416122540        5.2601993130       28.8012548472
  H        11.1971162380        7.0408637863       29.5394782153
  H         9.4302645394        6.8043267266       29.3508659916
  C        10.9965177317        5.7670042869       27.3833495439
  H        11.6035904107        4.7706726504       29.0804473978
  H         9.9061525136        4.4414580888       28.6920425449
  C        10.1133522914        5.1410232810       26.3115539594
  H        12.1085986273        5.5976783649       27.1260190876
  H        10.8099078186        6.8332445984       27.4602672964
  C         8.7484761888        5.9419864133       26.3363574035
  H        10.5162300876        5.1862456720       25.3321167607
  H         9.9760555376        4.0832338871       26.5404836267
  C         7.7434167998        5.2855821682       25.3571694790
  H         8.3775146028        5.9327770847       27.3631097848
  H         8.8604592477        6.9644915987       26.0119081250
  C         7.3475452194        3.9389316248       25.9197621653
  C         8.2080425666        4.6565214609       24.1318275289
  C         6.4223525805        6.1504758418       25.0978156929
  C         7.6316291788        2.8723621774       25.1001484087
  C         6.8331388997        3.5692177772       27.0986991732
  C         8.2063813517        3.3362721629       23.9212091124
  C         8.6036240923        5.4434650058       23.0538630831
  H         6.6016283773        6.7618784556       24.2641534252
  H         6.0698855131        6.6167084811       26.0255753435
  C         5.2087824461        5.2049163512       24.6077734154
  S         7.2279215926        1.3392593925       25.7779754225
  C         6.5842333932        2.2123477015       27.2062215961
  H         6.6862956420        4.2456783820       27.9326909169
  C         8.6279564703        2.8540497341       22.7669784690
  H         8.5519511905        6.5246057947       23.2334464931
  C         9.0473190744        4.9420929794       21.9039051880
  H         5.3711510482        4.9563758613       23.5730116050
  H         4.9690246926        4.3628322747       25.2300663448
  C         3.8894919573        5.9067025257       24.6196629498
  C         6.0484080369        1.5123642911       28.4383216185
  C         9.1142120736        3.5999200831       21.7186076015
  H         8.6957573090        1.7867100196       22.6922834951
  C         9.3758150015        5.3846701352       20.6415062539
  H         3.2278769930        5.2189269329       24.0682666534
  H         4.0148705504        6.8122464059       24.1184611874
  C         3.3365006745        6.2405309363       26.0384294859
  C         5.9984442675        0.1659195518       28.7147377228
  C         5.4319435387        2.3206910027       29.5053408020
  C         9.5301010816        2.9152635472       20.4717470583
  C         9.6407912581        4.3287845474       19.8208408370
  S         9.7237524784        6.8251836336       19.8574854706
  H         2.8791806930        7.2530839619       26.0273069957
  H         4.1263062682        6.4121150521       26.7371452273
  C         2.4473281668        5.0888879007       26.4877092923
  N         6.4153924081       -0.8281399197       27.8064040528
  C         5.6657047638       -0.4416785011       29.9590126116
  C         5.0871965774        1.7582301449       30.7330388217
  H         5.3600880150        3.3756935488       29.4148434272
  C         8.4670531209        2.0402195027       19.7210418217
  C        10.8571603000        2.0965769170       20.5213758127
  C        10.1348980272        4.7074447372       18.5636275736
  C        10.1369774849        6.0439186475       18.4309827531
  H         1.8371694753        4.8145906312       25.6744897422
  H         3.0016382819        4.1570858845       26.8004411402
  C         1.6026913211        5.2141002816       27.7558098320
  S         6.4111961957       -2.2787115496       28.5448580351
  N         5.8423473074       -1.8725563643       29.9475581368
  C         5.3080765778        0.3134500800       31.0958872901
  H         4.6426250199        2.3238454239       31.5228850442
  H         8.2812315518        1.1402758441       20.3811993000
  H         8.8783686807        1.7082620170       18.7386676485
  C         7.1138389784        2.6305914941       19.3668561112
  H        11.1814643984        1.9410837607       19.4803336149
  H        10.7100092713        1.1866819313       21.0210483063
  C        11.9268856384        2.9737064369       21.1003768543
  H        10.4026552166        4.0094937012       17.8100558926
  C        10.2740362377        6.8171656646       17.1268290006
  H         1.1739859972        4.2836207132       28.0322347077
  H         0.8738590493        5.9839879167       27.4286077116
  C         2.3962295674        5.4443323550       29.0770037657
  C         5.0670133711       -0.3073367652       32.3827051775
  H         7.1010246381        3.6909030583       19.3452493850
  H         6.3926913360        2.4773664916       20.1237049805
  C         6.4434699082        2.0273768732       18.1552837850
  H        11.8555113761        3.1850009452       22.1478535710
  H        12.1544526063        3.8983355996       20.6125141729
  C        13.2954348034        2.2210881611       20.9261898912
  C        10.0637971228        8.2130664198       16.8770641117
  C        10.4288480009        5.9814327819       15.9208259180
  H         3.1803311051        4.7712438233       29.1841891495
  H         2.7851102379        6.4235704964       28.9894336920
  C         1.5507551209        5.1851430639       30.3503841158
  H         5.0434741773       -1.3604436631       32.2436110349
  C         4.8315526560        0.1591127526       33.6592535701
  H         6.6654131494        0.9212384073       18.1748314183
  H         6.9189034641        2.3780072502       17.1758333695
  C         4.9075762506        2.3108803592       17.9707683420
  H        13.4194041338        1.3343267478       21.5826504803
  H        13.4182274055        1.8090823291       19.8998731858
  C        14.4819651120        3.0789625856       21.2466165726
  N         9.8296348337        9.2043975363       17.7828836613
  C        10.3368388021        8.7235715387       15.6313850537
  C        10.6082997707        6.5135705884       14.6565616568
  H        10.4427743724        4.9283378610       16.0700791030
  H         0.8258065448        4.4439229721       30.2389496392
  H         2.2630120322        4.8555485992       31.0326317254
  H         1.1257078181        6.1004913563       30.6870442876
  S         4.6396292164        1.7568608168       34.1750106087
  C         4.6627610304       -0.9180362980       34.6783174302
  H         4.6874213890        3.1584557892       18.5799087717
  H         4.6833431947        2.7946935324       16.9953196424
  C         3.8521060645        1.1459822840       18.2221021064
  H        14.3224103014        4.1394558867       21.1094156216
  H        15.2440906601        2.7954038894       20.5607155204
  C        14.8539941890        2.9551082657       22.7503154157
  S         9.7062066838       10.6243647186       17.0054438656
  N        10.3390047171       10.1218718512       15.6281000060
  C        10.6659873329        7.9471747830       14.4976939619
  H        10.9036099019        5.8449214092       13.7945219446
  C         4.4243962932        1.0234613178       35.7748455895
  N         4.3635828060       -0.3305394732       35.8476712041
  O         4.8873075898       -2.1015618871       34.4550013069
  H         2.9708743123        1.7390529097       18.0698603550
  H         3.9615996290        0.8750060532       19.2506350012
  C         3.9690611584       -0.0007053121       17.2255737130
  H        15.3922418027        3.9080336878       22.9398472179
  H        13.9915837707        3.0990400824       23.3532057465
  C        15.6908151498        1.7376987253       23.0856769318
  C        10.8069574236        8.5981860614       13.2012318996
  S         4.0216779398        1.9957057608       37.1913341624
  C         4.3871361560       -1.1656897155       37.0451316720
  H         3.7878885341        0.2794677175       16.1612685543
  H         5.0409224303       -0.1339820422       17.2223966291
  C         3.3880001933       -1.3645020591       17.4910732585
  H        15.5802812939        0.9143521392       22.2917998413
  H        15.2698352551        1.4021412103       24.0563119052
  C        17.1978769898        2.0980531614       23.3206243819
  H        10.4591999260        9.6205293767       13.0814560676
  C        11.3519084969        8.1871422376       12.0055785392
  H         3.9157399995       -0.6468343584       37.8060860864
  H         3.8442040688       -2.0752813152       36.8879840469
  C         5.9157705549       -1.3331498650       37.4930814684
  H         3.7005531753       -1.5934836452       18.4971310776
  H         3.9077319562       -2.0391696211       16.7711274594
  C         1.8775077965       -1.5886847359       17.4113203980
  H        17.3149480039        2.6765193841       24.2670069884
  H        17.8887284058        1.2780327941       23.4113201549
  C        17.8062957426        2.8807587928       22.1552837955
  S        11.9833557122        6.5647012851       11.5804361756
  C        11.5702138306        9.1727636706       11.0049998622
  H         6.0591574843       -2.3326615916       37.8669591158
  H         6.6337945810       -1.0294967417       36.7262317201
  H         6.1119171494       -0.6925403957       38.3029723803
  H         1.5764922301       -2.5768915851       17.3404165669
  H         1.4911887217       -1.0274061823       16.6019060815
  H         1.5099780789       -1.1719766521       18.3978185049
  H        18.8907493394        2.7688605182       22.2672696328
  H        17.6273346018        3.9477930857       22.1565531181
  H        17.5578600210        2.4233736816       21.1860251645
  C        12.5876159189        7.3747852520       10.1235563022
  N        12.2739238895        8.6573944068        9.9491198216
  O        11.2113794126       10.3148444491       10.9949901444
  S        13.4489413992        6.5771621406        8.9038877167
  C        12.5182216524        9.4927073891        8.7972591992
  H        12.7033940197       10.5261731056        9.0749117500
  H        13.5417953380        9.2319321721        8.4157579051
  C        11.4791944535        9.2910595266        7.6928273890
  H        10.5330602543        8.9488749430        8.1010240178
  H        11.2734490866       10.2245479721        7.1086114852
  H        11.9586852146        8.6108496353        6.9919582278
  H        -0.9296155372       13.0620401930       16.8109554520
  C        -1.4627905859       13.8814695722       16.3523117874
  H        -0.8635308840       14.5131269066       15.8747764743
  C        -2.1099074304       14.7967372372       17.4539425368
  C        -2.4143617440       13.2978891928       15.3497299163
  C        -2.7967762432       14.0883201075       18.6248048740
  H        -1.2906949540       15.4600074540       17.7998457956
  H        -2.9138973625       15.2972697076       16.8937837191
  H        -2.1427329523       12.2495712315       15.0122931457
  H        -3.2867382269       13.0672044619       15.8975992972
  H        -2.6859712366       13.8242788849       14.4666743111
  C        -1.9030132540       13.1871944223       19.4557567542
  H        -3.6231819132       13.4538002392       18.3466808390
  H        -3.1953201778       14.9370745419       19.1105782917
  C        -2.3225189935       13.4249458319       20.8673510016
  H        -1.9868978483       12.1160977175       19.2037939603
  H        -0.8368270019       13.4753053365       19.3222422725
  C        -1.3239206069       12.8542991944       21.8598449655
  H        -3.1861830191       12.7813046563       21.1710979650
  H        -2.5430554086       14.4849632250       21.1158001518
  C        -0.1147182638       13.7904929610       22.0791891406
  H        -1.7983721984       12.5696239295       22.8203470035
  H        -0.9537816713       11.9302505167       21.4602078354
  C         1.1259344191       13.0095131379       22.7644077889
  H         0.2355531636       14.2554947515       21.1564833455
  H        -0.4405610788       14.6896918274       22.6809477212
  C         1.3999953904       11.6832481199       22.1046092617
  C         0.6930765690       12.3134151067       24.0569103152
  C         2.3403731329       13.9461816523       22.9947188814
  C         1.1967498838       10.5601961055       22.8811838197
  C         2.0196262647       11.2315067798       20.9489886471
  C         0.7656599363       10.9495107210       24.1691417825
  C         0.2450450364       12.9433263553       25.2079098419
  H         2.5269410515       14.4703728050       22.0508028856
  H         2.0191075124       14.7374928235       23.7643777910
  C         3.5154774155       13.2697228044       23.5982474826
  S         1.6047523387        9.0096977911       22.2100276012
  C         2.1071665791        9.8680836135       20.8081954349
  H         2.2793324685       11.9277779874       20.1535155984
  C         0.5821690733       10.3212506932       25.4510929684
  H         0.0968379572       14.0300726298       25.1596992634
  C        -0.0606425941       12.3215357771       26.4261713999
  H         3.8423738848       12.6368219831       22.7555566021
  H         3.2362622821       12.5893654209       24.3550583467
  C         4.8108010036       14.0649848373       23.9886822642
  C         2.5583456773        9.0959789774       19.5811443122
  C         0.0761605688       10.9923907087       26.5574501049
  H         0.6587153015        9.2856218115       25.5451904040
  C        -0.4928765246       12.7275303703       27.7176430683
  H         5.4562075713       13.5586038275       24.7311087169
  H         4.4657060395       14.9443561750       24.5044746935
  C         5.6447913285       14.5483542133       22.7989489970
  C         2.7107806005        7.6919897673       19.3755709343
  C         2.9578027906        9.9648786950       18.4587681235
  C        -0.2876271489       10.2599026308       27.7910908164
  C        -0.5081971886       11.6133159785       28.5674176134
  S        -0.9148322527       14.2401439114       28.5546024315
  H         6.2413225064       15.4289412307       23.1194459708
  H         5.0527783392       14.6723442666       21.8970587861
  C         6.5775707932       13.4486786576       22.3599332122
  N         2.4185131508        6.7540452080       20.3715662548
  C         2.9915241668        7.1208599895       18.1568959973
  C         3.3158120611        9.3881785758       17.2736757929
  H         3.0890471639       10.9985683413       18.5058282240
  C         0.8312871709        9.3291867173       28.2835681900
  C        -1.7269917346        9.6233610303       27.6929650185
  C        -0.8912427573       11.9793407295       29.8628457044
  C        -1.0634650390       13.3127232701       30.0399877410
  H         6.8708427108       12.8106097875       23.1132871374
  H         5.9765573896       12.7615393061       21.7819157441
  C         7.5788456474       13.9160863886       21.3088904298
  S         2.5175213317        5.2831744543       19.6467650076
  N         2.9541251686        5.7155559717       18.1575517817
  C         3.2643600741        7.9077247176       16.9941515109
  H         3.6628128794       10.0459188121       16.5209503418
  H         1.2148741689        8.6434201098       27.4853567189
  H         0.4352222121        8.4984973085       28.9905586853
  C         2.0194594316       10.0673524807       28.8151990050
  H        -1.7206882071        8.8824839209       27.0158857798
  H        -2.0117979770        9.1481784452       28.6467303035
  C        -2.8980374605       10.6577562199       27.2972012441
  H        -0.9404152261       11.2148613698       30.6808037483
  C        -1.3402514206       14.0267755303       31.3797288280
  H         8.2592323259       13.0521697797       21.3017297220
  H         8.1624230275       14.7797400129       21.5968503070
  C         7.0682912122       14.2198316189       19.8845245065
  C         3.5566531693        7.2493412292       15.7276422788
  H         2.3441217908       10.8283216471       28.1219267814
  H         1.6799885055       10.6445397653       29.6472698360
  C         3.2213952683        9.3134264827       29.3165867794
  H        -2.5283409687       11.1320613692       26.4394250577
  H        -3.1140329963       11.5201846590       28.0111050210
  C        -4.1729241428        9.8019101786       26.8873379782
  C        -1.4532094785       15.4011982297       31.5912631984
  C        -1.5838696132       13.2015554989       32.6150253321
  H         6.1743199027       14.8679915895       19.9036287157
  H         7.8408375122       14.8123165652       19.3664857007
  C         6.6715068058       12.9621369921       19.1429867260
  H         3.5800802676        6.2147786967       15.6421695341
  C         3.8576766657        7.7401092752       14.4823771955
  H         3.7042666665        8.8658354366       28.5354742891
  H         2.8616341320        8.5010969352       29.9759346086
  C         4.3013550032       10.1272306195       30.0674689552
  H        -3.9527578121        9.1378498274       26.0469075441
  H        -4.5406665295        9.1199078810       27.6934107093
  C        -5.3307526770       10.7308398980       26.4201286890
  N        -1.2076082676       16.4386026252       30.6405723696
  C        -1.7606071201       15.9486936994       32.8009898790
  C        -2.0306051111       13.8156988343       33.7867676302
  H        -1.5482678931       12.1590738104       32.5522327444
  H         6.2297246809       13.2140483331       18.2628530272
  H         7.5723037206       12.4080975351       18.8817596649
  H         6.0436226477       12.3521503720       19.7925052356
  S         3.9383510627        9.3907923764       14.0663779545
  C         4.0757268693        6.7750938234       13.3552601857
  H         4.5501941928       11.0229321191       29.4939854346
  H         3.9277974078       10.4326182279       31.0755858775
  C         5.5569320016        9.2772837730       30.2344262670
  H        -4.9335812491       11.3055168690       25.5548901375
  H        -5.5659876176       11.4772271344       27.2251965082
  C        -6.4823733627        9.8116331188       26.0011268333
  S        -1.3037972401       17.8839767165       31.2377502821
  N        -1.9515471960       17.3536029300       32.6382075702
  C        -2.1851447488       15.2460506079       33.8789205345
  H        -2.2614167289       13.1734937636       34.6542909300
  C         4.2720200070        8.8160239640       12.4315247504
  N         4.2445801802        7.5027599685       12.2467326339
  O         4.2497084628        5.5803844989       13.4623098792
  H         6.1955858125        9.8452008997       30.8802470884
  H         6.0762345905        9.2288416206       29.2511590549
  C         5.3232585099        7.9469952587       30.7569848977
  H        -5.9646589606        9.0399528206       25.4538177655
  H        -7.0111231931        9.3531681708       26.8206142358
  C        -7.5520143471       10.5691347915       25.2252042975
  C        -2.5443227313       16.0565075443       35.0123945923
  S         4.3624011376        9.8139449170       11.0172263577
  C         4.2650573339        6.8508724796       10.9495286885
  H         4.6512425142        7.9518319758       31.5985625508
  H         4.8645073384        7.3939922419       29.9042425788
  C         6.5066169058        7.1318140292       31.1774777120
  H        -7.4349337837       10.6511164720       24.1535832111
  H        -7.6022209403       11.6021886385       25.5886788075
  C        -8.9055355772        9.8937601650       25.4206754640
  H        -2.5000217447       17.0995204827       34.9518912763
  C        -2.9955480898       15.6836491561       36.2666787514
  H         4.9679157685        7.4131677030       10.2600549698
  H         4.7467361660        5.8593798314       11.0829751650
  C         2.9022633647        6.8543889232       10.3148678086
  H         6.9120820945        7.5359445997       32.1024259875
  H         7.2806507864        7.0033445461       30.3995871336
  C         6.0988222299        5.7063274223       31.3574811418
  H        -9.4799073238       10.0491984719       24.4799675672
  H        -8.7817569374        8.7789167156       25.5080068713
  C        -9.5853054065       10.4453446813       26.6491409581
  S        -3.6240483624       14.0987496424       36.7341179485
  C        -3.0183872600       16.7368666883       37.2981610274
  H         2.8323373091        7.6525858675        9.5657937695
  H         2.7147745440        5.9451901074        9.7403250110
  H         2.0908473015        6.9810181574       10.9349754970
  H         6.8447311857        5.0629323071       31.0485953868
  H         5.1368228261        5.5270026694       30.7547045671
  H         5.8694775878        5.4296392843       32.3580696088
  H        -9.1548651140       11.3216597669       27.1807211686
  H        -9.7292556384        9.6265389227       27.4000635624
  H       -10.5530390430       10.6963690521       26.2549259124
  C        -3.8243267222       14.8792871014       38.2945267554
  N        -3.5943438949       16.2410489807       38.3544886511
  O        -2.7272755717       17.9576716076       37.1247121483
  S        -4.1779874665       14.1659823235       39.8431554327
  C        -3.6160070781       16.9796488792       39.5792355073
  H        -3.7825518053       17.9820267009       39.3574270208
  H        -4.5586650158       16.7569945549       40.1312019126
  C        -2.3259166961       16.7553008895       40.4621970945
  H        -2.5536590756       16.4253281892       41.5300666806
  H        -1.7546449864       16.0034588305       39.9934536889
  H        -1.8353327285       17.6932499022       40.5080510061
