352
 i =    22400, time =    22400.000, E =        24.2527775173
  H        12.7601892269        7.0224239697       31.8480225811
  C        12.1615123052        6.1324864365       31.6830233042
  H        12.9005873611        5.3961787859       31.2635320352
  C        11.1040841684        6.5414637153       30.6006300993
  C        11.4467007669        5.6108099517       32.9472375676
  C        10.2892312037        5.4119571547       30.0594691337
  H        10.4525303064        7.3427818556       31.0091184619
  H        11.5682796743        6.9892740954       29.7281042007
  H        12.1995453850        5.4213442820       33.7410177374
  H        10.6943221596        6.2907835062       33.3972489685
  H        10.9921040289        4.6265198247       32.6580863336
  C         9.3600134348        5.8715730805       28.9565604724
  H         9.6736849332        5.0082394269       30.8900278388
  H        10.9733278967        4.6661348700       29.7261196018
  C        10.1146474879        5.8242968995       27.5988629170
  H         8.4721955091        5.1759273473       28.7662127121
  H         8.9947123758        6.8810612903       29.0636225068
  C         9.2551243285        5.2189307308       26.5004047892
  H        10.9715149207        5.1764862476       27.6374305301
  H        10.4360366893        6.9083298813       27.4442439110
  C         7.9939314435        6.0377513813       26.0013670281
  H         9.8772920990        5.0904593559       25.6480199253
  H         8.9280658017        4.2572440302       26.8493351501
  C         6.9070714493        5.2283125253       25.3083859801
  H         7.6858664377        6.5596349092       26.9430234907
  H         8.3168765614        6.7610867886       25.2544442859
  C         6.5443948044        3.9019474077       25.9680287213
  C         7.4612587666        4.5221976410       24.0964635160
  C         5.6991382281        6.1368052122       25.0669981125
  C         6.9491055154        2.8252644742       25.2580989380
  C         5.8781778652        3.5104527781       27.1360691825
  C         7.4792016893        3.2020517259       24.0244025570
  C         7.9859751966        5.1891245615       22.9842693652
  H         5.9317413894        6.9528349789       24.4707843136
  H         5.3229621251        6.5738431837       25.9994615499
  C         4.5336336366        5.4035046225       24.4621965003
  S         6.5000622759        1.3135099352       25.9349773580
  C         5.7822146592        2.1454897815       27.3164007712
  H         5.5838795566        4.3268911467       27.8460131650
  C         7.8687365080        2.5761715611       22.8719837763
  H         8.0699743743        6.2777090707       23.0032736954
  C         8.3229925468        4.5809014808       21.8147498201
  H         4.6801745446        5.4885987586       23.3848334142
  H         4.5221759185        4.3799360113       24.7515561091
  C         3.1291514916        6.0834992728       24.7228290391
  C         5.4336972358        1.4411798062       28.5870504514
  C         8.2528371182        3.2355522141       21.6734571702
  H         7.7676809726        1.5588156785       22.7587559945
  C         8.7802990456        4.9447091804       20.5750904744
  H         2.4612694444        5.5256830328       24.0105602540
  H         3.2049124868        7.1834551771       24.5755038236
  C         2.6195492226        5.9767788226       26.1837665893
  C         5.5365103410        0.0842550213       28.9348877658
  C         5.0931689525        2.2765840052       29.7855227795
  C         8.6787315144        2.4692881231       20.4570601362
  C         9.0131901033        3.8219621040       19.7417797586
  S         9.1703099004        6.4412295319       19.7466191431
  H         1.8410352510        6.7258247408       26.1483553413
  H         3.4187879422        6.1904677808       26.8867263449
  C         1.8056985399        4.6919620972       26.5483690420
  N         5.8890535104       -0.9060565190       28.0557380870
  C         5.3323763465       -0.4477556297       30.1568029253
  C         4.8125548856        1.7502537623       31.0615908021
  H         4.9905322586        3.3700239490       29.7162446891
  C         7.6738051326        1.6223426593       19.7199856689
  C         9.9380938639        1.6727106557       20.7858584648
  C         9.4602167872        4.1912926323       18.4655283431
  C         9.5996383112        5.5602289620       18.3069438050
  H         1.1796184076        4.3797864062       25.7355591236
  H         2.5682357723        3.8936934236       26.4595125349
  C         1.1894336826        4.7037608350       27.9705204816
  S         6.0808754113       -2.3187924726       28.7923218722
  N         5.4749093908       -1.8539468405       30.2551791681
  C         4.9382072246        0.3227861532       31.2879580389
  H         4.5605274664        2.5100051314       31.7798798680
  H         7.4696466073        0.6902327198       20.2673442750
  H         7.9702245221        1.2181872917       18.7627265472
  C         6.3880551948        2.3833820180       19.4745672848
  H        10.1217585127        0.9858516333       19.9196322512
  H         9.8410777376        1.0637742524       21.7102550047
  C        11.2682229312        2.4174396281       20.9543192471
  H         9.4159188611        3.4290372347       17.6718866056
  C         9.8990384695        6.2200060802       16.9667065751
  H         0.8183837682        3.7506059325       28.2821154402
  H         0.3933254546        5.4373117455       28.0853290171
  C         2.1945000304        5.0950924913       29.1070299903
  C         4.7994057643       -0.3347986411       32.5681254012
  H         6.5035994394        3.2505146394       18.8317843102
  H         6.0128388961        2.7703956321       20.4145152128
  C         5.3539275072        1.4335964727       19.0173344956
  H        11.2530617651        3.0899383890       21.8193289014
  H        11.6074115644        2.9676088363       20.0673166073
  C        12.4253080391        1.5066595901       21.2115113074
  C         9.8752616388        7.6413330734       16.7678160580
  C        10.1481009151        5.3336752008       15.7770716986
  H         2.8230006420        4.1736426435       29.1829385107
  H         2.9386346611        5.8754409329       28.9408446267
  C         1.5296822855        5.3467581357       30.5109592512
  H         4.8301618664       -1.4547922445       32.5508672559
  C         4.4812264507        0.0567803082       33.9193069998
  H         5.0146617825        0.7788246438       19.8336744551
  H         5.7251768773        0.7278465160       18.2139343978
  C         4.2102648212        2.1161660655       18.3475212796
  H        12.4040644080        0.8673933226       22.1302100537
  H        12.4781075504        0.7934697011       20.4213162049
  C        13.7287618491        2.3407489164       21.2589456895
  N         9.6399973663        8.6144888991       17.7821113318
  C        10.2951256968        8.1827753351       15.5967582338
  C        10.4497954309        5.9130963710       14.5340360141
  H        10.1555817293        4.3069361716       15.7899482764
  H         0.6138912710        5.9039151735       30.3955957846
  H         1.2186568019        4.4757831643       30.9577482376
  H         2.1641479585        5.7916981138       31.2302690817
  S         4.2145022961        1.6989462961       34.4185701828
  C         4.3096014246       -0.9737237131       34.9207565030
  H         4.0881770716        3.0327455175       18.8167048537
  H         4.4336280982        2.5001641031       17.3204541892
  C         2.8501828655        1.3547068063       18.4956672622
  H        13.6268500242        3.1544086363       20.6739864714
  H        14.4657356161        1.7373297496       20.7975759585
  C        14.0882087014        2.6986811301       22.7046225899
  S         9.6185354503       10.0744009147       17.0932541703
  N        10.2617052439        9.6122975858       15.6567937325
  C        10.6509193866        7.4056175404       14.4557365892
  H        10.7005042827        5.2625356234       13.6803190336
  C         3.9346623074        1.0202764976       36.0636032482
  N         3.9773309217       -0.3217977148       36.1018996017
  O         4.5605659672       -2.1700564119       34.8105637611
  H         1.9511668381        2.0143605323       18.2353167561
  H         2.6421645169        1.1206438816       19.5450364621
  C         2.7738720270       -0.0070878307       17.7540336331
  H        14.7638561203        3.5279145471       22.7241640106
  H        13.2662353573        3.1291468897       23.2592985434
  C        14.6439475001        1.5897772161       23.6355668052
  C        10.9691411882        8.0989143636       13.2479182429
  S         3.5583825074        1.8942466802       37.5610308395
  C         3.8207449056       -1.1186994356       37.3315290519
  H         2.5724619680        0.0781474240       16.7140378223
  H         3.7216712492       -0.5536477096       17.8080205884
  C         1.7455574675       -0.9463955555       18.2453797411
  H        14.6884567780        0.5599310105       23.2585533000
  H        13.9462328197        1.5945487849       24.4489584485
  C        16.0890696783        1.8798349407       24.1475742119
  H        10.6791527334        9.1161947121       13.2616200985
  C        11.5479391251        7.6673452880       12.0619037108
  H         3.0542852687       -0.8733852974       38.0504944935
  H         3.5369448495       -2.1901735344       37.0030630240
  C         5.1147416255       -1.1588442397       38.0860409612
  H         0.7540502381       -0.4460381081       18.3408655411
  H         1.9379849492       -1.2559761695       19.2850215839
  C         1.5476475571       -2.1764703998       17.3906627364
  H        16.1696731905        2.8840297583       24.6594459937
  H        16.4513480559        1.2054239372       24.8813809233
  C        17.0755553464        1.8576387458       23.0139366016
  S        12.2112156094        6.1600403137       11.6437493800
  C        11.5189237219        8.6915328014       10.9496800406
  H         5.4776626743       -2.1781944937       38.3034143278
  H         5.9717102193       -0.5967427539       37.6632915689
  H         4.8923398222       -0.5492604711       38.9506817254
  H         1.2296657657       -1.9327825860       16.3895317751
  H         0.8625484099       -2.7782186155       17.9622037848
  H         2.4280205790       -2.6760881901       17.3252440047
  H        18.0841870404        1.6581635600       23.4264257760
  H        17.0850034260        2.8116292439       22.5401873601
  H        16.8988513694        1.1136399921       22.2259888787
  C        12.3967954817        6.8658589748       10.0347998047
  N        12.1124375629        8.1642799389        9.9174332536
  O        11.0103244941        9.7824123113       11.0357981078
  S        12.8682037975        5.8866098883        8.6998279225
  C        12.4038869323        8.9274787868        8.7747343249
  H        12.5514788824        9.9565338607        9.1747214903
  H        13.3753307075        8.5078059188        8.4615876904
  C        11.3364366780        8.8065806511        7.6759161145
  H        10.8372905397        9.6809834270        7.4124412181
  H        11.6268069154        8.3395901019        6.7649828827
  H        10.4686648362        8.1828398785        8.0405216771
  H        -3.4321585486       14.6464365826       15.9846614590
  C        -3.3142860863       13.5904755230       16.2454713698
  H        -4.2731233878       13.3043360439       16.7704023615
  C        -2.1524361941       13.6128748598       17.1796101743
  C        -3.1547417662       12.8286151663       14.9152539646
  C        -2.3923022562       14.1549598782       18.5419486030
  H        -1.9648479312       12.5176652158       17.3118569464
  H        -1.1968256805       14.0228678810       16.7287682116
  H        -4.1863495100       12.7980644696       14.5733920254
  H        -2.5767458617       13.4355930878       14.1972427005
  H        -2.7002419339       11.8205021839       14.9691667189
  C        -1.9029752395       13.1369183458       19.6005209215
  H        -3.5015263577       14.2952533480       18.7046720950
  H        -2.0098861143       15.1221676130       18.6683790946
  C        -2.3383059739       13.5725930064       21.0217960838
  H        -2.3191322173       12.1364816861       19.3391762864
  H        -0.8542664217       13.1270371320       19.5305214294
  C        -1.4351396850       12.9062054286       22.0883892027
  H        -3.3794206855       13.6354287872       21.2014315722
  H        -2.0310088915       14.5814732601       20.9002297698
  C        -0.1984436876       13.7161118062       22.6332144445
  H        -1.9576438213       12.8011411665       22.9706833948
  H        -1.3252732247       11.8418157403       21.8481979915
  C         0.8696950980       12.9074968003       23.4240650529
  H         0.2189081122       14.2764115309       21.8021804355
  H        -0.4879784454       14.4500364905       23.3611114786
  C         1.2274365674       11.5285212126       22.6688228167
  C         0.4509691161       12.1050677438       24.5771484826
  C         2.1016238199       13.8478372990       23.4874265285
  C         0.9868847410       10.4317284861       23.4310080419
  C         1.7052837809       11.2024252328       21.3868900924
  C         0.5071374798       10.7537182852       24.6741137283
  C        -0.0133706553       12.7120178966       25.6981506559
  H         2.3033378892       14.3098650173       22.5352107124
  H         1.9647799137       14.6453008973       24.3086918313
  C         3.3946288248       13.1073469821       23.8510569449
  S         1.2748629354        8.9856756134       22.6162969724
  C         1.8225341684        9.8838939294       21.1905723966
  H         2.0752428480       12.0110756703       20.7570383240
  C         0.0148277345       10.0940097922       25.7753269880
  H         0.0105499784       13.7958961328       25.5104036217
  C        -0.3656062814       12.1260738882       26.8292630073
  H         3.5833119071       12.3240845513       23.1076657060
  H         3.1852302116       12.7119140778       24.8410010434
  C         4.5758305947       14.0385975265       23.9236159837
  C         2.2786838443        9.2239038882       19.9125908087
  C        -0.3402296981       10.7929362138       26.9729197641
  H        -0.1635801022        9.0243715800       25.7532335691
  C        -0.8975808223       12.5100321149       28.0247244560
  H         5.4049650377       13.6061947535       24.5451495725
  H         4.3775036100       14.9033072759       24.5715260254
  C         5.2863509551       14.3585859900       22.5872253207
  C         2.4188690541        7.8483956914       19.7229267752
  C         2.5585240384       10.1244074840       18.7584809842
  C        -0.8396936195       10.0568041591       28.2243655682
  C        -1.1107192270       11.4669982774       28.9094047869
  S        -1.1155558667       14.0422686356       28.7729530072
  H         6.0807124179       15.0447883497       22.6958872053
  H         4.5380412959       14.7424289053       21.8827903621
  C         6.0008586715       13.0770340004       22.0226975102
  N         2.1454650218        6.8757248593       20.6872094504
  C         2.6926861420        7.3020429105       18.5298291289
  C         2.8159384000        9.5698644914       17.5132871887
  H         2.4969140050       11.2241163812       18.9116778021
  C         0.1390923404        9.2190418095       29.0236392803
  C        -2.1630553971        9.2678937558       27.9325559977
  C        -1.5424389215       11.8539047168       30.1757287422
  C        -1.5028423621       13.2535241118       30.3044164493
  H         6.5890097769       12.7926673550       22.8363494034
  H         5.3353275334       12.2842629118       21.8070602590
  C         7.0691181893       13.5150790632       20.9324967125
  S         2.3550125213        5.3712201364       19.9975647263
  N         2.7290274256        5.8892523509       18.4911499031
  C         2.8066222131        8.0743567919       17.3404576554
  H         3.0109575600       10.2812615647       16.6965255076
  H         0.3612779408        8.2533066951       28.4611680006
  H        -0.2657238062        8.9150685497       29.9913966022
  C         1.4010725126       10.0035863837       29.2772088400
  H        -2.0306252856        8.3806370626       27.3708470189
  H        -2.4769125771        8.9039598127       28.9778765342
  C        -3.2272956096        9.9991637061       27.2330418942
  H        -1.7409052115       11.1395799757       30.9270903093
  C        -1.7500580481       14.0797484661       31.5782072753
  H         7.9347173117       13.0930420040       21.2762829681
  H         7.2530652956       14.5637125485       20.8686850129
  C         6.8202294091       12.9684008981       19.4714257245
  C         3.0951578869        7.3686056129       16.1032947854
  H         1.8689126077       10.4574373526       28.4252256141
  H         1.2129441926       10.8294331651       29.9843781485
  C         2.4960243760        9.0724066244       29.8691172477
  H        -2.8004861112       10.5199590466       26.3957894635
  H        -3.4843090187       10.7796770477       27.9746237513
  C        -4.3523584696        9.0837475024       26.8223956494
  C        -1.7574245201       15.4638010757       31.7182858470
  C        -1.9775910776       13.3291687197       32.8455404744
  H         7.4739969705       13.4832934522       18.8369590012
  H         7.0357970765       11.9062415632       19.6421681989
  C         5.4797368562       13.2102425750       18.9051694237
  H         2.8109741036        6.3245546024       16.1626324307
  C         3.3943479993        7.7855450989       14.7865362045
  H         3.1075195404        8.5182415649       29.2054666606
  H         1.9374601845        8.4301705936       30.6041094383
  C         3.5035469511        9.8155481563       30.6592377755
  H        -4.0526287691        8.5141512112       25.9111529479
  H        -4.7698916036        8.4167952269       27.6476854959
  C        -5.4820306030        9.8846086157       26.4192529313
  N        -1.4388148239       16.3667508510       30.6970785273
  C        -2.1584131679       16.0380353114       32.8860358681
  C        -2.2190666508       13.9225502256       34.0632120119
  H        -2.0268876057       12.2587617074       32.8171199712
  H         5.5487064888       13.0916871194       17.8571704355
  H         4.7591475817       12.4456410451       19.2971170881
  H         5.0479957241       14.1806400167       19.2409019497
  S         3.6714072637        9.3264634403       14.3145852526
  C         3.6003066087        6.7342782014       13.7231902333
  H         3.6465277331       10.7193408737       30.1007048091
  H         2.9762665754       10.0547505996       31.5879208334
  C         4.8859070909        9.2061108066       30.8230811773
  H        -5.3710874720       10.1227042389       25.3589222709
  H        -5.5723556743       10.8167763958       27.0074462667
  C        -6.8442258721        9.0859477647       26.5680160760
  S        -1.7471910005       17.8480192052       31.3016562011
  N        -2.3197524352       17.4424810184       32.7347406262
  C        -2.3192853702       15.3667950420       34.1056870444
  H        -2.3945835770       13.2910708980       34.9419002566
  C         4.1474828249        8.7399377733       12.6974173345
  N         4.0585117205        7.3721288819       12.5948227670
  O         3.6530092589        5.5687220100       13.9987034200
  H         5.6186055663        9.8557786278       31.2786399595
  H         5.3151127980        9.1689198939       29.8272498580
  C         4.9233922612        7.8988818864       31.6900247804
  H        -6.8435466411        8.2716580227       25.7853214677
  H        -6.9526493942        8.5199493804       27.4584793006
  C        -7.8798019607       10.2015768057       26.5076248155
  C        -2.7980734579       16.1110893449       35.2601023044
  S         4.7973263646        9.6810644095       11.3340900736
  C         4.1480528824        6.5978441316       11.3525880617
  H         4.8788084366        8.2042835087       32.7907372117
  H         4.0466177147        7.3086592458       31.4749350907
  C         6.1444843992        7.0407782578       31.4773757435
  H        -7.6132298537       10.9253477113       25.7045402748
  H        -8.1008873326       10.6297354741       27.4467352556
  C        -9.1681723208        9.6643674579       26.0216102786
  H        -2.7562396274       17.1894502228       35.2563736628
  C        -3.3444530620       15.6757040769       36.4166664379
  H         4.7813572237        7.1381718192       10.6558170957
  H         4.8029769159        5.7304969382       11.4673422684
  C         2.7846237137        6.2767855996       10.7480852159
  H         6.1838188768        6.3629498925       32.3299566715
  H         7.0293668891        7.6099952812       31.5333821055
  C         6.0316324793        6.3062661830       30.1154105518
  H        -9.5428508195        8.8316174801       26.6080329879
  H        -9.9001819451       10.3920310589       26.2451734444
  C        -9.1934258143        9.3544008507       24.4939938537
  S        -3.9249663249       14.1256770552       36.8707941992
  C        -3.4144774625       16.6739963296       37.5287466269
  H         2.6479360344        5.2331346870       10.4957006460
  H         1.9433926990        6.6353161671       11.3988829880
  H         2.7611884034        6.8514390750        9.7998459931
  H         5.0284494018        6.5186499222       29.7492492327
  H         6.1869871064        5.2605662703       30.0685305883
  H         6.7572344175        6.7347284513       29.5192793818
  H        -8.7841953007        8.4357010969       24.1906955990
  H        -8.5410014889        9.9371245229       23.8778518067
  H       -10.2349048152        9.5066983930       24.0632626508
  C        -4.2707358165       14.7907305423       38.4792572267
  N        -3.9508155157       16.0880162129       38.6108198262
  O        -2.9981231223       17.7824402861       37.5102558394
  S        -5.1439848595       14.0281820461       39.8408621537
  C        -4.1228853638       16.9341258013       39.7771616693
  H        -4.3279576838       17.9831529864       39.5682450296
  H        -5.0333400103       16.7364978541       40.3193668502
  C        -2.9205370050       16.9905387652       40.6734348633
  H        -2.5825988119       15.9896885109       40.8577931572
  H        -2.1242692816       17.4697150685       40.1580112483
  H        -3.0446089514       17.4542350601       41.5795077132
