352
 i =      200, time =      200.000, E =        46.5191621647
  H        11.7549771817        7.0388334747       32.6074855671
  C        11.7346999425        5.9946865957       32.4817641606
  H        12.7902569605        5.7148615120       32.2859056870
  C        10.7391468780        5.7392908427       31.3687835505
  C        11.3153846917        5.5015588489       33.8567778626
  C        11.3073263805        5.8213214495       29.9437393246
  H        10.5599032621        4.6774059058       31.4702232699
  H         9.9053443078        6.3296297062       31.4890146612
  H        10.2753109493        5.2429079685       33.9285287585
  H        11.9555185308        4.6553451360       34.1150930610
  H        11.5039635820        6.1598307625       34.6127704951
  C        10.1758195510        5.8769546339       28.8858661184
  H        11.9529338289        5.0105217707       29.8698948642
  H        11.8888166659        6.7415035161       29.9795862567
  C        10.6586561491        5.4926331852       27.4439776433
  H         9.4457176195        5.2319205328       29.1550129642
  H         9.7826703460        6.7338320700       28.7502084850
  C         9.5524064277        4.8453774176       26.6498949233
  H        11.4831483818        4.8392184888       27.5720732459
  H        10.9828058683        6.4012870044       26.9005408426
  C         8.3980117651        5.8333248514       26.2947409735
  H        10.0185257354        4.5302108526       25.6797812772
  H         9.1168723900        3.8628446259       27.1095134901
  C         7.2110739056        5.1304582033       25.5688068494
  H         8.0066660018        6.3150933204       27.2598024130
  H         8.7417035940        6.6075709956       25.6613328339
  C         6.9239839717        3.6754902417       26.1593604346
  C         7.6164160201        4.3478982801       24.2910217146
  C         5.9656571787        5.9610394627       25.4133361954
  C         7.1167994674        2.6147972711       25.3161723288
  C         6.4670549740        3.2369174763       27.4197478821
  C         7.6183507474        2.9909949887       24.1473925374
  C         8.1890451238        5.0020035732       23.1947019734
  H         6.1121111174        6.6311606106       24.6075835000
  H         5.6491521291        6.4505237396       26.2499643582
  C         4.7359407884        5.1093145214       24.8971870842
  S         6.6819303764        1.0836160141       26.0276989857
  C         6.2511271838        1.8946876340       27.5443083824
  H         6.1878203663        3.8864019796       28.1246857647
  C         8.0404609855        2.4596560071       22.9974247303
  H         8.2531490210        6.1178795860       23.1663702956
  C         8.5176517352        4.4188610021       22.0376991298
  H         5.0144164310        4.8583594558       23.9659496636
  H         4.6591154970        4.1913586907       25.4830812471
  C         3.5113254102        5.9748084455       24.8369315563
  C         5.7859185939        1.2910154762       28.7789407027
  C         8.5481800507        3.1027594394       21.8754593524
  H         7.9055569149        1.3911592227       23.0553299787
  C         9.0116638458        4.8471796038       20.8545796748
  H         2.8531489475        5.6198207580       24.0906124281
  H         3.7382947407        6.9901867629       24.4648687492
  C         2.7106261854        6.0196828986       26.0806426207
  C         5.8889951814       -0.1092159659       29.0070669794
  C         5.3063697288        2.0524033549       29.9099834659
  C         9.0028973745        2.4007066918       20.6504825014
  C         9.2713541466        3.7709517387       20.0569674465
  S         9.3181883030        6.3394329078       20.0822730696
  H         1.9096946723        6.6457585649       25.8849620566
  H         3.2879570710        6.4325126446       26.8663756681
  C         2.0779667329        4.7043292902       26.6161917064
  N         6.2753231940       -1.0966127677       28.0763733043
  C         5.5567628185       -0.7174654033       30.2105054824
  C         4.9905066949        1.4692369417       31.1348318689
  H         5.1816690734        3.0469779698       29.8355110608
  C         7.9496787196        1.6599508303       19.7874482303
  C        10.2712254631        1.5493122917       20.9442844420
  C         9.6584869665        4.2313466071       18.7997926965
  C         9.6471380738        5.5670657804       18.5966565918
  H         1.3859778249        4.2547091695       25.9794211822
  H         2.9287428404        4.1583266365       26.8588313385
  C         1.2813515826        4.9747922406       27.8327576834
  S         6.1810264401       -2.5645881052       28.7075598783
  N         5.6263906881       -2.1064879698       30.1572365306
  C         5.1767913928        0.0317372713       31.3821197967
  H         4.4671380964        2.0542197460       31.9023253472
  H         7.5291174653        0.9227270177       20.4160297051
  H         8.3758241770        1.2452388858       18.9376396233
  C         6.6946922088        2.4813289410       19.3977137124
  H        10.4944454613        0.9516079299       20.1878780889
  H         9.9519482061        1.0106637059       21.7344153203
  C        11.5075101456        2.4302860579       21.4322915682
  H         9.8435280898        3.5363087106       18.0876824575
  C         9.9269242620        6.3239437997       17.3542658023
  H         0.5698880241        4.1771934947       28.0193307972
  H         0.7864599397        5.9378406549       27.7672585705
  C         2.0677458767        5.0387151821       29.1356427794
  C         4.9799156068       -0.6775362207       32.5732048234
  H         6.9218751486        3.3364244494       18.8134211649
  H         6.2135319103        2.6888150667       20.2727026618
  C         5.8030463971        1.5940336181       18.6205936848
  H        11.3829764258        2.9091663751       22.3157230614
  H        11.7474993773        3.0624260671       20.6846983244
  C        12.7631963959        1.6352065623       21.7434417424
  C        10.0205970573        7.7858205692       17.2582914933
  C        10.1767387782        5.6410136877       16.0788219944
  H         2.5078395960        4.1798385056       29.2355879606
  H         2.8453931866        5.7790687976       28.9597833121
  C         1.1665228836        5.3413814520       30.3275220757
  H         5.0417384905       -1.7935760976       32.6255240860
  C         4.7369242563       -0.2284243502       33.8975356174
  H         5.4641871580        0.8231999714       19.2008186711
  H         6.3439273321        1.2713372458       17.8051996644
  C         4.6285229024        2.4081825053       18.0915227027
  H        12.5494233384        0.8019244801       22.3300381941
  H        13.2617147131        1.3253704082       20.8780136424
  C        13.7403305999        2.2051934352       22.6180894851
  N         9.7575651929        8.7734082871       18.2237133577
  C        10.3169885405        8.4542117946       16.0096402576
  C        10.5137447819        6.2833681593       14.9463822529
  H        10.1216347122        4.6227362184       16.0745528256
  H         1.5350853782        4.7173603821       31.2612623241
  H         1.2714618411        6.4106887456       30.6907119001
  H         0.1341399109        5.0661934405       30.0907719593
  S         4.5687473413        1.4599496220       34.3965557955
  C         4.5988768115       -1.1522744177       34.9753364377
  H         4.5641053347        3.3085824712       18.6521981332
  H         4.7679821839        2.7245683692       17.1259810827
  C         3.2760366840        1.8046331377       18.1296835593
  H        13.4431208742        1.9998850491       23.6555478131
  H        13.6577101618        3.3370966806       22.6726050495
  C        15.0670871906        1.6177297846       22.2465749693
  S         9.9815356273       10.2381571608       17.5940472452
  N        10.3906266959        9.8614189689       16.0577505837
  C        10.6457983650        7.7481647958       14.7690826997
  H        10.6709158092        5.6777399814       13.9447567170
  C         4.3766961395        0.7982962420       36.0137996627
  N         4.3856271435       -0.4916457301       36.1266428200
  O         4.5859126505       -2.3610158682       34.6879604250
  H         2.6514398269        2.4606837245       17.6370204492
  H         2.8147671918        1.8021340160       19.0492248271
  C         3.2111173718        0.3422069294       17.4846804304
  H        14.9350635099        0.5207042889       22.3701452111
  H        15.4277902538        1.7524670798       21.1852942836
  C        16.2362996062        2.1554099539       23.1267288345
  C        10.9373215692        8.5596599886       13.6386452181
  S         3.8605347365        1.7309571141       37.4591723664
  C         4.3586119983       -1.2426079557       37.4109620204
  H         2.7540147495        0.4680586592       16.5433044783
  H         4.2361529100        0.0243779000       17.2177784715
  C         2.4715562310       -0.7145157149       18.3387195443
  H        15.8776640791        2.1622896635       24.1079741128
  H        16.3992814763        3.1408922284       22.8616371241
  C        17.6373864000        1.4455561323       23.0842883789
  H        10.8863931553        9.6163438121       13.7134085455
  C        11.4575441869        8.2304761486       12.3565080094
  H         3.7357364833       -0.7428766434       38.0398640414
  H         3.8820190206       -2.1682590617       37.2266490795
  C         5.7448673324       -1.1878275609       37.9832816032
  H         1.4872138187       -0.2873516695       18.6652580655
  H         2.9234449754       -0.7616039780       19.3169221575
  C         2.4896876330       -2.0093194214       17.6183757760
  H        18.1196626097        1.6709207231       23.9123910166
  H        17.5313868627        0.4203328301       22.8510496650
  C        18.3976719902        1.9245482417       21.8215784274
  S        11.8131783148        6.5514639721       11.9315517896
  C        11.6412806902        9.1677158894       11.2946436277
  H         6.0326523705       -2.2056193226       38.5750343894
  H         6.6683521372       -1.1353929421       37.2355802108
  H         5.7780247150       -0.2973084953       38.6661875184
  H         1.7648085112       -2.8030062507       17.9345629331
  H         3.4169205854       -2.6491431740       17.6468352209
  H         2.1946928784       -1.8642723267       16.4874705205
  H        19.1762285570        1.3288538043       21.7092654337
  H        18.7172824442        2.9360145489       22.0573586562
  H        17.7710871879        1.9213818209       20.8856015007
  C        12.2579024174        7.2194728427       10.3906764025
  N        12.1728782482        8.5496594368       10.2080338795
  O        11.3924686530       10.4037665270       11.3901848200
  S        12.5503003988        6.3119149938        8.9194280478
  C        12.3361510047        9.2908878499        9.0341806636
  H        12.7768337317       10.2403666343        9.2265656447
  H        13.0570251037        8.8785593694        8.4255365701
  C        10.9942697345        9.2926152813        8.2482758564
  H        10.6662811613       10.4138651186        8.4162926292
  H        11.1028872772        9.2271053160        7.0165222520
  H        10.3228976336        8.4353766179        8.6535915221
  H        -3.2616483277       14.8764995572       16.5021453775
  C        -3.0666896058       13.8608710758       16.5800116100
  H        -3.8376884482       13.2749765178       16.9023576242
  C        -2.0391798682       13.7566040852       17.7661550847
  C        -2.6623035325       13.3101896922       15.3256375498
  C        -2.8044421632       13.8027022957       19.0350574424
  H        -1.6257685715       12.7590318633       17.7652167677
  H        -1.3201155438       14.5752969190       17.7249211296
  H        -3.3391437880       13.6436937926       14.5367472581
  H        -1.6612249655       13.6201931593       15.1802959891
  H        -2.7928780911       12.2442791406       15.4354941386
  C        -1.8053177245       13.9134396782       20.3004215367
  H        -3.3066535088       12.9442838947       19.1554659301
  H        -3.3934856582       14.6334082363       18.9910295544
  C        -2.4079875345       13.4703873975       21.5782016096
  H        -0.8863770752       13.3427238795       19.9665989473
  H        -1.5580878233       14.9909360693       20.2935712639
  C        -1.3216426093       12.7729103278       22.4650537309
  H        -3.1831037213       12.8031153369       21.3699970451
  H        -2.7878381452       14.2929965377       22.0679329781
  C        -0.1964206269       13.7106735421       22.7982298499
  H        -1.9016887967       12.5299998758       23.3722609723
  H        -1.1568650786       11.8025002279       22.0235724583
  C         1.0555184543       12.9288586124       23.4127560960
  H         0.1602674974       14.4317226212       22.0082106554
  H        -0.6038408075       14.4002459225       23.6079750381
  C         1.2988587160       11.5847662757       22.7265560993
  C         0.5552215610       12.1225559935       24.5651326515
  C         2.3616696990       13.7032832310       23.4964056477
  C         1.0171797209       10.4560672165       23.4793629704
  C         1.7554202285       11.3225949776       21.4979987333
  C         0.5716453759       10.7844756999       24.6429390159
  C         0.1520686965       12.7185787645       25.7435124579
  H         2.6139818435       13.9969710824       22.5518514699
  H         2.0354052225       14.5297667281       24.1040185368
  C         3.5954662203       12.9959473326       24.1751589623
  S         1.4536573512        9.0055325106       22.7264235123
  C         1.9989307725        9.9741245346       21.2952200317
  H         2.0589103839       12.0008965271       20.8967408562
  C         0.1989048412       10.2131675118       25.8363053937
  H         0.1305334792       13.7882014347       25.7734322331
  C        -0.2342197690       12.1151007284       26.9331686026
  H         3.8347206706       12.0475221645       23.8389368460
  H         3.3769669655       12.8751613588       25.0895668980
  C         4.7277352918       13.9662859561       24.2456751842
  C         2.5055298646        9.4599769895       19.9945514999
  C        -0.2504865238       10.7832892185       27.0251090542
  H         0.1616099187        9.0935487440       25.8689882913
  C        -0.6024952000       12.5137115344       28.1605733384
  H         5.4433804674       13.7260467344       24.9388514569
  H         4.2679228269       14.8258156929       24.5680549344
  C         5.3786737638       14.2436433232       22.8664245676
  C         2.5646975875        8.0083566041       19.7721127981
  C         2.8869946696       10.2945918065       18.9100909718
  C        -0.7803808857       10.0448294704       28.2811836527
  C        -0.8417795397       11.4365625119       28.9683497499
  S        -0.8982301009       14.0174860474       28.9618038239
  H         6.0914515788       15.0233441140       22.9650216246
  H         4.6405559985       14.7181172737       22.2179376923
  C         6.0721421622       12.9756468848       22.3249302532
  N         2.4275684410        6.9640231500       20.6630240668
  C         2.8836436803        7.4609820209       18.4963786956
  C         3.2728241724        9.7632335709       17.6642131182
  H         2.9474774630       11.3118497541       18.9283710452
  C         0.3138567265        9.1148679920       28.8916677339
  C        -2.2069110378        9.4666953765       28.1038308360
  C        -1.1704256995       11.8018976760       30.2531814213
  C        -1.2196330913       13.1554184525       30.4920119371
  H         6.6725050420       12.4496241397       22.9250461511
  H         5.2945179875       12.3793137250       21.8345699047
  C         7.0198475140       13.2969092540       21.0995471263
  S         2.5457037725        5.5142481526       19.9689515113
  N         2.9277676255        6.0598000012       18.4888147116
  C         3.2713279196        8.2956811958       17.3308374013
  H         3.7049376675       10.4778062016       16.9205415136
  H         0.6230688837        8.4635603809       28.1341668122
  H         0.0093825172        8.5230201417       29.6100677103
  C         1.6071870309        9.8736789774       29.3275506783
  H        -2.0616895876        8.7444504471       27.3428656367
  H        -2.5803548980        9.1185618025       29.0064334256
  C        -3.3167458215       10.3652510256       27.5665982496
  H        -1.4475122339       11.1998482504       31.0025993653
  C        -1.6204663947       13.8872401598       31.6870893243
  H         7.5966699524       12.4777360697       20.7625758569
  H         7.5522528499       14.2460765954       21.3041385855
  C         6.1612472698       13.5845281420       19.8676862334
  C         3.4744503655        7.6211755088       16.1001773577
  H         2.0556312023       10.1257135650       28.3714674783
  H         1.3884840345       10.7006567765       29.9373084669
  C         2.6464298837        9.0074089540       30.0203173972
  H        -2.9666006770       10.8993628715       26.7394232323
  H        -3.5912004160       11.1137741719       28.3323897503
  C        -4.5438190723        9.5342255530       27.1946976171
  C        -1.5555888527       15.2906167602       31.7458847209
  C        -1.7954747231       13.1973431060       32.9303464785
  H         5.5175898514       12.7986140064       19.7595273771
  H         5.5472950073       14.3892432127       19.9832591337
  C         6.8304036898       13.8081037195       18.5730112624
  H         3.3113737680        6.6510543600       16.0631164891
  C         3.8996422115        8.0451069763       14.8430965328
  H         2.9268928431        8.2006372749       29.3650262704
  H         2.2881641045        8.6959880159       30.8617479730
  C         3.8860667156        9.8329876430       30.4064510320
  H        -4.2219662331        8.7891294901       26.5579400847
  H        -5.0140914917        8.9968330218       27.9666970108
  C        -5.4872503601       10.2707040030       26.3887029117
  N        -1.4660777102       16.2558056870       30.7551186061
  C        -1.8891147904       15.9784560827       32.9562130390
  C        -2.1135027637       13.8564951338       34.1332785493
  H        -1.7370416656       12.2093422314       32.9020373848
  H         6.2400434678       14.0901591809       17.7783524663
  H         7.5450859217       14.6302396660       18.5766127144
  H         7.4127248406       12.9490028929       18.1343939136
  S         4.1989511869        9.7190839218       14.4796388038
  C         3.9181634479        7.1214795680       13.7214833097
  H         4.0193225280       10.6745370779       29.7140105184
  H         3.6183847167       10.1823472272       31.4064045663
  C         5.1898477337        9.1824654553       30.6085609580
  H        -4.9523251555       10.7776266408       25.6608208050
  H        -5.9028430760       11.0881747922       26.9794791662
  C        -6.5432488931        9.2946412677       25.7947161639
  S        -1.6259943232       17.7313872596       31.2603139830
  N        -1.9944885020       17.3386520110       32.7951104999
  C        -2.2272978346       15.3177872937       34.1921217774
  H        -2.2802040052       13.2300793850       35.0080224101
  C         4.4254238464        9.1566691560       12.8655372301
  N         4.2056966112        7.8670821342       12.6363018004
  O         3.8017616374        5.9292756198       13.8790313585
  H         5.7996682189        9.8946628894       31.1176622303
  H         5.7934613125        8.8947913018       29.7028372358
  C         5.1425585677        7.9757066373       31.6760144607
  H        -6.2029293539        8.7933498249       24.8363491294
  H        -6.8575919486        8.5210767584       26.5589393905
  C        -7.8783652805       10.0460999911       25.3777349286
  C        -2.4675585841       16.1792969876       35.2888927023
  S         4.6270871630       10.2116991237       11.4764116175
  C         4.2947846132        7.2237010081       11.3347290433
  H         5.6245478161        8.3381202548       32.6377661749
  H         3.9328783351        7.6433250989       31.8631980925
  C         5.8676452998        6.8041465886       31.0830916795
  H        -7.6264699467       10.3734976768       24.3154084285
  H        -7.9086395776       10.9041985891       26.0207099248
  C        -9.1384001002        9.4161408334       25.2573427861
  H        -2.1986548999       17.1359643839       35.1488924664
  C        -3.0855454204       15.9296257299       36.5289468308
  H         4.8987749636        7.7863813973       10.7703455935
  H         4.8876324503        6.4162582296       11.3866675574
  C         2.8838790660        7.0486973270       10.7673612697
  H         6.9027124189        7.0900129102       30.8244700518
  H         5.4897632388        6.6647968362       30.1337448023
  C         5.6927516986        5.4872542070       31.8876200984
  H        -9.6543725122        9.6766179492       24.4320065399
  H        -9.1407380038        8.4064243722       25.1498702526
  C       -10.0581979329        9.5219482249       26.4917336080
  S        -3.5649701290       14.3428915839       37.0883776403
  C        -3.2479128376       16.9803977875       37.4867989042
  H         2.1657489713        7.9968714511       10.8264100765
  H         2.8940465027        6.8466167405        9.6129256335
  H         2.2604375849        6.1592595857       11.2501341993
  H         6.3927041339        4.6688073729       31.7366433132
  H         4.7357005672        4.9578003063       31.8335965085
  H         5.8110329150        5.5708842708       32.9191391779
  H       -11.0567658752        9.0924510202       26.2742707168
  H       -10.2587545798       10.5386386444       26.9285843118
  H        -9.7099529149        8.9113043703       27.3196214448
  C        -3.9678235913       15.1921380398       38.5689711095
  N        -3.6820979230       16.4449733208       38.6601556331
  O        -2.8100840205       18.1269288138       37.2140452465
  S        -4.5020941718       14.2934314917       40.0768062138
  C        -3.8140378404       17.3409741779       39.7724247466
  H        -3.9936801637       18.3158042666       39.6292192621
  H        -4.5548709998       16.9463139865       40.4032003814
  C        -2.4913734023       17.2500936034       40.6493672369
  H        -1.6128891544       17.5601254979       40.0434014810
  H        -2.6752876970       17.8280578637       41.5576108701
  H        -2.4427641915       16.2325537781       40.9146109198
