352
 i =    66100, time =    66100.000, E =        24.9042742349
  H        10.5779169674        4.6324069740       31.4017512051
  C        11.1099844114        5.5500370403       31.7496035660
  H        10.2754186802        6.1512363254       32.2244060911
  C        11.7424094396        6.4265276506       30.6748370921
  C        12.1949551529        5.2597229799       32.8333162356
  C        12.4302085855        5.5312554514       29.6503863634
  H        11.0378753251        7.1199380034       30.2582678392
  H        12.4814558562        7.0139176229       31.2347117893
  H        11.8213916416        4.6928257669       33.6551092523
  H        12.9969877777        4.7012976736       32.4298439673
  H        12.4821128243        6.2103211425       33.3025455043
  C        11.5561720040        4.7492687561       28.6307173743
  H        12.9648628213        4.7547203269       30.1935004795
  H        13.2567478273        6.0353912572       29.1592100468
  C        10.8983977138        5.6700289199       27.6342147662
  H        12.1293510107        4.0010354244       28.1451435685
  H        10.7754042183        4.2065128785       29.1332247808
  C         9.8104588634        4.9326782939       26.8057985323
  H        11.6393072498        6.1049670916       26.9844599188
  H        10.4189021070        6.5004561105       28.2720393616
  C         8.7504012241        5.7963625932       26.2571834942
  H        10.3465007133        4.3174246391       25.9985653635
  H         9.3893579387        4.2306534123       27.5493375175
  C         7.6920533984        4.9628808450       25.4825201478
  H         8.3139213056        6.4032040473       26.9778102708
  H         9.2393037087        6.5079955171       25.6096862585
  C         7.3283768815        3.6312573071       26.1547511783
  C         8.2137454272        4.2943319047       24.2218104896
  C         6.5101878556        5.8294117383       24.9720035899
  C         7.6555392169        2.5610155751       25.3229445110
  C         6.6940589453        3.1535494746       27.3278144577
  C         8.1663934085        2.9588121684       24.1023730873
  C         8.5270506274        5.0090187598       23.1003837237
  H         5.9809187421        5.2741986620       24.1254693750
  H         6.9152707584        6.8093880919       24.6127468151
  C         5.3956199582        6.1944515156       25.9662662357
  S         7.4706048309        0.9948493276       25.9902692842
  C         6.7600689002        1.7327708266       27.4496834256
  H         6.2589232608        3.9283281520       27.9299483457
  C         8.4513132707        2.3508919369       22.9230486500
  H         8.4154039664        6.1122654701       23.1465434798
  C         8.8068958675        4.3845852372       21.8985564887
  H         5.3529811446        5.4063078561       26.6072697834
  H         5.7215899234        7.0814453545       26.4961324433
  C         4.0131649109        6.3742122757       25.2603601977
  C         6.3182007456        1.0155935330       28.6502391031
  C         8.7630082881        3.0230719869       21.7608719025
  H         8.4188027415        1.2835885358       23.0049535147
  C         9.1759283508        4.7952195542       20.6548072140
  H         3.6972347088        5.5420520386       24.5780193669
  H         4.0462247054        7.3172000658       24.6072225085
  C         2.9512894866        6.5059626893       26.2846230607
  C         6.4263021512       -0.3776000084       28.9004260837
  C         5.8380257098        1.8426668262       29.7523999018
  C         9.0886409194        2.3552848066       20.4309671911
  C         9.3155861574        3.7099807451       19.7796390301
  S         9.6041958659        6.3109992145       20.0047825812
  H         2.1104917811        6.9931866235       25.8435120695
  H         3.3472925008        7.1233219532       27.0518026337
  C         2.3318160292        5.1892836988       26.6692294088
  N         6.8778879797       -1.2797016112       27.9325113920
  C         6.0995714153       -0.9375348823       30.0574087932
  C         5.5685069106        1.2686567486       31.0150934363
  H         5.6497352498        2.8607148173       29.6401039373
  C         7.9308298497        1.5624261876       19.8929473281
  C        10.3793440508        1.4479355626       20.4753614405
  C         9.7175651668        4.1628744124       18.4944732900
  C         9.8927691766        5.5202308512       18.4883899742
  H         1.7551706423        4.8516899746       25.7356127421
  H         3.1190581100        4.4268832009       26.7762797572
  C         1.5889970384        5.2073484324       27.9363777971
  S         6.7578195880       -2.7918093563       28.5656800312
  N         6.1871913063       -2.3645471313       30.0325020093
  C         5.7328338181       -0.1598813097       31.1700150082
  H         5.1700241137        1.8372037707       31.8106793532
  H         7.6316499978        0.7471725585       20.5745667166
  H         8.3242002512        1.0436255467       19.0049201630
  C         6.6724507708        2.3775983296       19.4401820608
  H        10.5298730804        1.3150137950       19.4121286448
  H        10.2352440441        0.4131169087       20.8780189466
  C        11.5915390335        2.0342077855       21.1535984674
  H         9.9423350179        3.4567349094       17.7432150009
  C        10.2287599484        6.2405255089       17.1961709169
  H         1.1690567337        4.2503523252       28.0107254705
  H         0.6204884522        5.8199557771       27.8651784534
  C         2.3018888509        5.6326910699       29.1155319525
  C         5.4765744189       -0.7723243529       32.4130922499
  H         6.8654144313        3.0265491691       18.5500897665
  H         6.3623520103        3.1370988449       20.1577609288
  C         5.3937678216        1.5645699832       19.2238408159
  H        11.5167948635        2.4769143642       22.1221854140
  H        11.7973178385        2.9177473930       20.4901297174
  C        12.8623215316        1.1941119703       21.3171524172
  C        10.2519694119        7.7013534237       17.1008544733
  C        10.4968372030        5.4878121593       15.9498303783
  H         3.2890315784        5.0463345449       29.2198845387
  H         2.3894759932        6.6873753049       29.0883335708
  C         1.5126784481        5.2468803882       30.4320780450
  H         5.3169519995       -1.8279696913       32.2679792835
  C         5.0771562646       -0.3381341812       33.6669390995
  H         4.6617848524        2.3512713344       19.3864140049
  H         5.2690686280        0.7547821712       19.9671450577
  C         5.1944874995        0.9767315205       17.8524318931
  H        12.6556134608        0.3758937926       22.0016174185
  H        12.9509167012        0.6946875728       20.3663148236
  C        13.9579629340        2.1006948150       21.8385951376
  N        10.0912011036        8.6191677895       18.1645595667
  C        10.5123738821        8.3114279145       15.9010661092
  C        10.8378559863        6.1503719485       14.7952079808
  H        10.4508543356        4.4175610474       15.8212262257
  H         0.6430776900        4.5836342828       30.2718177302
  H         2.1632695666        4.6273223864       31.0607347674
  H         1.2884777801        6.1152213920       30.9681924402
  S         4.7873192749        1.2392389804       34.2319245812
  C         5.0824254187       -1.4060745713       34.7442431535
  H         5.7373393118        1.6180897062       17.0972263975
  H         5.6154753381       -0.0220453414       17.7736333229
  C         3.7165125452        1.0143949605       17.3899700516
  H        13.4950015348        2.8364738766       22.4599502607
  H        14.3152130097        2.7805760194       21.0562515376
  C        14.8781849237        1.2724862270       22.7080358702
  S        10.2091977480       10.1620047416       17.5977037344
  N        10.4609922421        9.6981571720       16.0897463324
  C        10.8772234753        7.6329801275       14.7273628182
  H        11.1989281520        5.5693650405       13.9284167952
  C         4.4116504321        0.5374437958       35.7965982860
  N         4.6801113701       -0.7962672119       35.8739910013
  O         5.4639118989       -2.5450129444       34.4899639774
  H         3.5762098071        0.8422506122       16.3093535395
  H         3.0995122204        1.9670087393       17.7057529925
  C         2.8822583676       -0.0856886547       18.0917276013
  H        14.2883262462        0.9172986157       23.5930757507
  H        15.2703566661        0.3537509989       22.1649986540
  C        16.0834784287        2.0892167244       23.2008361088
  C        11.1710994850        8.4287762393       13.6090220067
  S         4.3170510351        1.3322173266       37.3597543844
  C         4.7237490703       -1.5035297795       37.0862786142
  H         3.1203476700       -0.0779655775       19.1578332103
  H         1.7834563673        0.1848578824       17.9781606427
  C         2.9874070206       -1.4756878172       17.5707673990
  H        15.8722257794        2.7608943783       24.0068915590
  H        16.3025057127        2.7817880816       22.3795593356
  C        17.2816126137        1.2661695045       23.5511127691
  H        10.9345709677        9.4623864835       13.7594139515
  C        11.7072662585        8.1248402462       12.3670829685
  H         3.9346364292       -1.2380589321       37.8060842524
  H         4.4250212092       -2.5164917002       36.9179145733
  C         6.1209992157       -1.6050901436       37.7844879427
  H         2.6016151053       -2.1610343457       18.3611730745
  H         4.0239209288       -1.6665958638       17.5179939136
  C         2.3379523498       -1.8911280635       16.2507054575
  H        17.1442476052        0.7683563296       24.4956965814
  H        17.3716035535        0.5225343040       22.8598824438
  C        18.5806325683        2.0065327567       23.3693707687
  S        12.3520325943        6.6385981015       11.8884110120
  C        11.8056105094        9.2085269620       11.3207938076
  H         6.3847067600       -0.6984843105       38.3081309190
  H         6.1418003480       -2.3925499928       38.5160344402
  H         6.9172147173       -1.8894652769       37.0568316411
  H         1.1939953274       -1.9791781435       16.4544483820
  H         2.7247013909       -2.8626634478       15.9142081639
  H         2.4525352045       -1.0864456181       15.5276295824
  H        18.8962285830        2.5100106758       24.2685142565
  H        18.5630646515        2.8287725019       22.6537414234
  H        19.4173388543        1.3939325033       22.9013464573
  C        12.6808470820        7.4097328968       10.3600208987
  N        12.4188924983        8.7554317516       10.2448465649
  O        11.2218455634       10.2750837465       11.4556490589
  S        13.3839246257        6.6282634666        9.0212268985
  C        12.4187854768        9.4547705984        8.9779246529
  H        12.6573451512       10.5655827811        9.1064748717
  H        13.1571357009        9.0859913660        8.3674968152
  C        11.0942276495        9.2965388618        8.2200305129
  H        10.1648947883        9.0587636570        8.8075382120
  H        10.8821645653       10.2498205698        7.6990124272
  H        11.0656979747        8.5415035393        7.4701981805
  H        -1.9345789688       12.2536420151       16.7201596358
  C        -1.9968341146       13.2824850792       16.4907575799
  H        -1.0048603193       13.7448338516       16.6449582126
  C        -3.0986122514       13.8775872045       17.3395908494
  C        -2.1936315416       13.4245373522       14.9751537653
  C        -2.7292607791       14.4653103801       18.7185270480
  H        -3.7007583680       14.7194074575       16.8237354884
  H        -3.9085858631       13.1526297280       17.3301680820
  H        -1.9964245557       14.4352998371       14.5597819896
  H        -1.5399318936       12.7632373662       14.4234785617
  H        -3.1203971391       13.0483652219       14.6955659939
  C        -1.5979391480       13.6436871921       19.5006960883
  H        -3.5574910450       14.4859181298       19.3694683980
  H        -2.4543062100       15.4865722198       18.5438084277
  C        -1.8100656740       13.7081865601       21.0382246574
  H        -1.6836787458       12.6176443788       19.2108156913
  H        -0.6151559012       13.8477420456       19.1742072270
  C        -0.6973357562       12.9847833211       21.8418525322
  H        -2.7172563496       13.1074416287       21.0819751003
  H        -2.0953017733       14.7271725403       21.3195194154
  C         0.3668241628       14.0313829250       22.2649295784
  H        -1.1412873286       12.4914334701       22.7125611180
  H        -0.2981699080       12.1450221066       21.1909113450
  C         1.5221138398       13.2671487398       22.9966473711
  H         0.7819348551       14.4485095873       21.3197537633
  H         0.0310057611       14.8938258963       22.8451089549
  C         1.9480358294       11.9873880314       22.3707845594
  C         1.1516517444       12.5260853048       24.2396442909
  C         2.7287290504       14.3161610511       23.2054944360
  C         1.8250012330       10.8691003439       23.1499029306
  C         2.4374430906       11.6531648142       21.1033077091
  C         1.3150174377       11.2093574668       24.4116832021
  C         0.5901383691       13.1924647928       25.3653530124
  H         3.0194179037       14.6575675815       22.2575045246
  H         2.5430220403       15.2120179037       23.7514776048
  C         3.9277437331       13.7217386467       23.8442493841
  S         2.2883220647        9.4003996086       22.3847343489
  C         2.6865623768       10.3091753130       20.9275094488
  H         2.5706129587       12.4363114765       20.3800164293
  C         0.8554321796       10.6012047136       25.5412128870
  H         0.4430706404       14.3131326134       25.2371877243
  C         0.3407676740       12.5582887194       26.5769566893
  H         4.1211946607       12.8054067058       23.2910929937
  H         3.6997112149       13.3997686502       24.8359148557
  C         5.1954316608       14.6692567467       24.0000729582
  C         3.0559368719        9.5451584267       19.6458884515
  C         0.3124900645       11.2229821280       26.7076650854
  H         0.8336874346        9.5892072912       25.5374764481
  C        -0.2115853152       12.9363687939       27.7873239181
  H         5.8024677800       14.2302226905       24.8137256316
  H         4.8860507950       15.6884889232       24.3058514044
  C         5.9237854051       14.4763881466       22.7390596401
  C         2.9064460574        8.1606856822       19.5046517982
  C         3.4811363405       10.2973964049       18.5273120438
  C        -0.1537236776       10.4781348454       27.9579572118
  C        -0.3594060952       11.8795155504       28.6519210809
  S        -0.6253881433       14.4635426851       28.5097264498
  H         6.6955078393       15.2135379098       22.7321420049
  H         5.2064706153       14.6555232527       21.8966017303
  C         6.7167141273       13.1597922737       22.4573245203
  N         2.4917886800        7.3059318682       20.5338072419
  C         3.1103847485        7.4988646983       18.3221039362
  C         3.5491707147        9.7148472860       17.2965890964
  H         3.5695283597       11.3994438447       18.5686930807
  C         1.0789162761        9.7565169402       28.6907201470
  C        -1.4567403035        9.6322862311       27.8583843467
  C        -0.7395888944       12.2700500101       29.9148462573
  C        -0.9461443416       13.6484294080       29.9705476601
  H         7.3683959765       12.9085655387       23.3168627228
  H         6.0674220654       12.3734947128       22.1946321382
  C         7.5999429575       13.2525994732       21.1750774438
  S         2.5769538765        5.7622358992       19.9836111312
  N         2.8271303719        6.1254380527       18.3731198005
  C         3.4262760854        8.2385035880       17.1238097452
  H         3.4914059886       10.4085733658       16.4943633254
  H         1.1683019795        8.7756769141       28.2429619363
  H         0.7087858024        9.4728526419       29.6736384359
  C         2.2615127119       10.5748939404       29.0032678064
  H        -1.3687508047        8.7820589904       27.2864047988
  H        -1.7922023482        9.1991075120       28.8071218600
  C        -2.7087300270       10.3441873569       27.4395028043
  H        -0.7978358789       11.5757373749       30.7375328945
  C        -1.4118059578       14.4181135338       31.1982348505
  H         7.9278642012       12.3042654875       20.9747269364
  H         8.3804695094       13.9209918378       21.4708795823
  C         6.9053061659       13.8135048667       19.9335905981
  C         3.4019204789        7.5413088231       15.8385491845
  H         2.5175209885       11.4285839506       28.4116790110
  H         2.0620105718       10.9399007741       29.9973880372
  C         3.5547257698        9.7075331357       29.1100816679
  H        -2.3685920263       10.9953328626       26.5731041559
  H        -3.0833513900       11.1079283819       28.1175065671
  C        -3.8465185343        9.4215084323       26.9752885334
  C        -1.4609659045       15.7703982944       31.4019526139
  C        -1.7556259108       13.5476373918       32.3965979646
  H         6.0266348582       13.1463281821       19.8625586440
  H         6.4139682955       14.8071489000       20.0445027607
  C         7.7471687137       13.7547260121       18.6293833630
  H         3.1675087707        6.5268373785       15.9143546878
  C         3.7302408279        7.9715939704       14.5514755227
  H         4.4019940772       10.0218929905       28.4522098258
  H         3.2939375085        8.7089971274       28.7995241119
  C         4.0941536928        9.6139807830       30.5403591909
  H        -3.4893408287        8.9093842493       26.0470385604
  H        -4.0414461160        8.6649105020       27.6658702426
  C        -5.0710437946       10.2120524984       26.7699192224
  N        -1.0937043703       16.7094247834       30.4748783879
  C        -1.7087493169       16.3517712284       32.6743795338
  C        -1.9630304308       14.0942778645       33.6449405228
  H        -1.9089168372       12.4726143006       32.2679827613
  H         8.5144839662       14.4910633456       18.6277655190
  H         8.2156002400       12.7584811648       18.6915944118
  H         7.1391090935       13.8808278569       17.7505210533
  S         4.1867854685        9.5212932047       14.0761514065
  C         3.6603675322        6.9381764157       13.4503994399
  H         4.4871415630       10.6134490616       30.8135913609
  H         3.2946414862        9.3432236066       31.1776474976
  C         5.3506792439        8.6386627370       30.5594737320
  H        -4.7783216425       11.0756915147       26.1313145259
  H        -5.4755602670       10.7061774009       27.7004330569
  C        -6.2844493388        9.5194653995       26.0203432049
  S        -1.2578209447       18.1805186324       31.1432788906
  N        -1.6209942472       17.7625648487       32.6250616253
  C        -2.0102911570       15.5532224127       33.8168793687
  H        -2.1182072109       13.4266591829       34.4998501071
  C         4.4593989235        8.7728291094       12.4977468215
  N         4.2337760110        7.4897047566       12.4029752822
  O         3.4177831252        5.7649939607       13.5883890160
  H         6.2075390919        8.9942408147       31.0872273094
  H         5.7427921630        8.5100608713       29.5207014769
  C         4.9406116243        7.2286021088       30.9918262933
  H        -5.8609630959        8.8762244235       25.2174606991
  H        -6.8418981319        9.0563833883       26.7794772205
  C        -7.2102910428       10.5345005034       25.3740279308
  C        -2.3030517084       16.1532831958       35.0513384499
  S         5.0368802842        9.7282372700       11.0806220636
  C         4.2315067625        6.8223391346       11.0877058483
  H         4.1712880061        7.1504899171       31.7662308075
  H         4.5919042266        6.7076618385       30.0840198031
  C         6.1547291348        6.4289431817       31.2812744673
  H        -6.7740607821       10.8317735652       24.4585439521
  H        -7.3043695760       11.4205731984       26.0672553295
  C        -8.5191776872        9.9067438826       25.1299001681
  H        -2.1866822918       17.2400325271       35.0423210563
  C        -2.8773973542       15.7411826484       36.2701230769
  H         4.7617650723        7.3309162732       10.3137404788
  H         4.9172924964        6.0804084433       11.0897406465
  C         2.8768860070        6.4521823695       10.4446389006
  H         6.0417056365        5.4435249918       31.7187621039
  H         6.5932946041        7.0843192378       32.0465356141
  C         7.1788728962        6.2990625374       30.2025741244
  H        -9.0003764138       10.2165440754       24.1588764745
  H        -8.2567002078        8.8757135828       25.0287863154
  C        -9.6149337457       10.0264801719       26.2536585331
  S        -3.4428673958       14.1394421681       36.6962889972
  C        -3.0645238104       16.8085113883       37.2790237372
  H         2.6635097777        5.4402588108       10.7058563731
  H         2.1050195133        7.1281753202       10.8339088667
  H         2.9734935965        6.5784722340        9.3263578128
  H         7.6920764427        5.3017572661       30.3838441468
  H         8.0357375352        6.9498799182       30.3602949147
  H         6.7157363058        6.5073882420       29.2322829714
  H        -9.8883330871       10.9957093982       26.6621778169
  H        -9.1881989761        9.5373309152       27.1318074205
  H       -10.4726777907        9.3453693506       25.9026606723
  C        -3.8773038588       14.9152857979       38.2435595501
  N        -3.6398749062       16.2539901696       38.3251947604
  O        -2.6055215497       17.9594941903       37.2118875035
  S        -4.7667183736       14.0203744663       39.5169157904
  C        -3.9101555873       17.1082406663       39.5226084056
  H        -4.2605368476       18.1291385422       39.2256226395
  H        -4.8131372576       16.8191825395       39.9980644019
  C        -2.6884339290       17.2015762255       40.5549577691
  H        -1.9648196750       18.0254561626       40.3947422381
  H        -3.2179761426       17.4757774448       41.5090570484
  H        -2.0766315446       16.2679212776       40.7497489558
