352
 i =    76900, time =    76900.000, E =        24.9665225225
  H         9.8916906095        7.1168048758       32.4137247802
  C        10.8644891099        6.7608691791       32.2011543046
  H        11.5078083277        7.6302792130       32.2498938834
  C        11.0210197773        6.3153632488       30.7275423265
  C        11.2953425425        5.6836713145       33.1808747422
  C        10.2726105974        5.0670205224       30.3617216629
  H        10.7939262002        7.1632382121       30.1145413873
  H        12.0427819125        6.1326012278       30.4295930349
  H        10.4554179055        5.0925041133       33.4121543492
  H        11.9836179760        5.0404443628       32.6968742108
  H        11.7630340633        6.1841977237       34.0212506512
  C         9.2456917357        5.3397710535       29.2651730474
  H         9.5039144104        4.7752488615       31.1496825063
  H        11.1031749188        4.3592531436       30.1853940468
  C         9.9129617183        5.4410702213       27.8175675867
  H         8.4333581146        4.5943016534       29.3399234753
  H         8.5586332086        6.2387540926       29.5220564903
  C         8.9282441362        4.8707845964       26.8122607039
  H        10.9035610622        4.9278719244       27.8315532263
  H        10.0162179346        6.4577300148       27.6127961638
  C         7.6574495084        5.6131436846       26.3493623395
  H         9.6264329182        4.7000354097       25.9549934987
  H         8.7062746291        3.8742144751       27.0417791859
  C         6.6321064419        4.8621387088       25.4747952445
  H         7.0771662332        5.8147796360       27.2105366461
  H         7.8521798170        6.5720927040       25.9097614191
  C         6.3170508097        3.5216257016       26.1565452391
  C         7.2100674006        4.1492892938       24.2299150136
  C         5.3839767449        5.6014276644       25.1272430481
  C         6.6192918650        2.4329728810       25.3960286459
  C         5.9627770926        3.1547241570       27.4947316484
  C         7.1812129775        2.8050904572       24.1829302414
  C         7.8099194451        4.7555119250       23.1221297308
  H         4.8818991282        5.0022424530       24.3478055906
  H         5.7910002658        6.5184120758       24.5908607137
  C         4.5195566033        6.0009081261       26.3712045997
  S         6.3743696869        0.8752093204       26.2388562786
  C         5.9696748869        1.7981759818       27.6773446119
  H         5.6711475875        3.9453253469       28.1928817119
  C         7.8034269734        2.1744926624       23.1559495348
  H         7.9960036126        5.7773814363       23.1411797796
  C         8.2862278169        4.0840585933       22.0436856211
  H         4.8421901435        5.5056427812       27.2767523158
  H         4.7506506734        7.0204099469       26.5368216118
  C         2.9775481660        5.9145444675       26.0778155835
  C         5.5370473476        1.1571095271       28.9401339946
  C         8.3055422349        2.7708502891       21.9783095653
  H         7.8403275084        1.0580846528       23.2082512937
  C         8.7744524669        4.4131417612       20.7842369112
  H         2.6993212405        4.9228656555       25.7554366153
  H         2.7633760549        6.5045535339       25.1830839143
  C         2.1146470396        6.3637052355       27.2860241937
  C         5.6950261358       -0.2243654811       29.3021140210
  C         5.0331671491        1.9393969923       30.0874918304
  C         8.6753801638        2.0010883867       20.7458268750
  C         9.0235258515        3.3133725130       20.0043431358
  S         8.9697274753        5.8934282490       19.9998850641
  H         1.1130792245        6.4522684786       26.8930898342
  H         2.4084143798        7.3405004057       27.6885743055
  C         2.1679955439        5.4429640706       28.5316688686
  N         6.1078667154       -1.2268299668       28.3941198763
  C         5.3994492278       -0.7998083729       30.5445673033
  C         4.7788249636        1.3406233472       31.3501438288
  H         5.0048573380        3.0308848942       29.9713745153
  C         7.5391281950        1.0776633735       20.1062298410
  C         9.9643428841        1.1524834789       20.8982729640
  C         9.3391166517        3.7281211594       18.7191031919
  C         9.4101726206        5.1143693251       18.5638935117
  H         1.9256944485        4.3740901820       28.3428711596
  H         3.2441114908        5.3858157426       28.8977487358
  C         1.1573844244        5.8895642243       29.5999799376
  S         5.9745454956       -2.6873756090       29.0726930314
  N         5.5044087215       -2.1718788148       30.5404672018
  C         5.1007095454       -0.0538944291       31.6821801271
  H         4.3568515030        1.9547450714       32.1294954889
  H         7.2792457653        0.2945023707       20.8783869071
  H         7.8946459451        0.5399933043       19.2566058904
  C         6.2819645874        1.8618268321       19.6747895365
  H        10.1167434649        0.6174168530       19.9755329584
  H         9.8048628365        0.4228496149       21.6930104797
  C        11.2308934164        1.9884739436       21.1310667614
  H         9.4073821352        2.9239358539       17.9955064139
  C         9.6739932240        5.9470823223       17.2669406453
  H         0.1792214334        6.0145205905       29.1270560465
  H         1.3762366364        6.8973538084       29.9661048360
  C         1.0311463907        5.0301692653       30.8361517140
  C         4.8480828357       -0.7734104405       32.9433968494
  H         6.5813338981        2.5560050868       18.8945204091
  H         6.0911940829        2.4286865878       20.5494450273
  C         4.9979212207        1.0218291005       19.4879447820
  H        10.8458723902        2.8035477409       21.7205937168
  H        11.5708096786        2.4314382106       20.1659693824
  C        12.3398617883        1.3106606937       21.8615761999
  C         9.7307481349        7.3293051265       17.2181498663
  C        10.0751476174        5.1780515679       16.1047158087
  H         0.2815369038        5.5766352828       31.5187103032
  H         0.6624452413        4.0378526532       30.7118735795
  C         2.3566918320        4.7459706187       31.5225434324
  H         5.0180854345       -1.7950241961       32.8489010846
  C         4.6066748406       -0.3556365443       34.2382779093
  H         4.2161608206        1.7816465622       19.5260657832
  H         4.8252628128        0.1976258847       20.1672404469
  C         5.0757356807        0.3535747987       18.1305202006
  H        11.8745631058        0.9030951441       22.7217474841
  H        12.7819036355        0.4629897118       21.3223682198
  C        13.4042230119        2.3352205371       22.1613029991
  N         9.5146426421        8.2881584084       18.3238351302
  C        10.0191994651        7.9821466200       16.0257812315
  C        10.3759770350        5.8495090774       14.8676928282
  H        10.1721177735        4.0681550710       16.2039475684
  H         3.1185420512        5.5636573537       31.6090922632
  H         2.2768671755        4.2138182295       32.4607828244
  H         2.9175068738        4.0281374805       30.9237301364
  S         4.3202190116        1.2877822425       34.6840143272
  C         4.6112545656       -1.3932734009       35.2891069790
  H         5.6474811197        0.9892175579       17.5032355584
  H         5.6509387258       -0.5640829205       18.1736920665
  C         3.6518105479        0.1029165740       17.5769683475
  H        13.0466884008        3.0057333276       22.9286396401
  H        13.5920182973        2.9344074768       21.2500844059
  C        14.5876250121        1.6296465562       22.6519712239
  S         9.7227863693        9.7966074791       17.7599187233
  N         9.9231866590        9.3826865642       16.2188926627
  C        10.3013163399        7.3222335165       14.8395690070
  H        10.7436087419        5.2416525871       14.0769882521
  C         4.3605127518        0.6266943791       36.3476653963
  N         4.2547058282       -0.7206815294       36.4299928307
  O         4.7534187052       -2.5849623977       35.0893897199
  H         3.5915576859        0.2801276886       16.5024333929
  H         2.8470154246        0.6816433983       18.0481153196
  C         3.3207963298       -1.3131496561       17.9464128363
  H        14.3135914421        0.8188550860       23.2710085572
  H        15.1177948261        1.2886102730       21.7212951372
  C        15.4281978266        2.6349331138       23.3970112453
  C        10.6513916804        8.1347822676       13.7423507578
  S         3.7928522428        1.6173553790       37.6912959013
  C         3.9833844762       -1.4098920677       37.6995359299
  H         3.9529713025       -1.9160801151       17.2565792722
  H         3.5712320214       -1.6217698318       18.9641571217
  C         1.8386773028       -1.7294876933       17.8622727914
  H        14.9322510754        2.9603250467       24.3227546663
  H        15.5841893106        3.3650756369       22.7187390361
  C        16.7209956908        1.8639503736       23.7378390062
  H        10.7639381654        9.2040604471       13.8790819344
  C        11.1042322619        7.8801248204       12.4568196625
  H         3.2820741442       -0.8193711570       38.2531751561
  H         3.3009978689       -2.2753635744       37.6096842051
  C         5.2822995539       -1.4869734500       38.4898835640
  H         1.1964953847       -0.9771203738       18.2727626452
  H         1.7623092296       -2.6552418540       18.4296890389
  C         1.4005017434       -2.0629165691       16.4412075326
  H        17.1332537729        2.1710476480       24.6560975979
  H        16.5310187715        0.7116291300       23.7802537664
  C        17.7311311203        2.1356921132       22.6690998558
  S        11.3316963844        6.3493824998       11.7701828068
  C        11.3443296783        8.9611848635       11.5079267203
  H         6.1226284252       -0.9879381073       37.9652465810
  H         5.1940561575       -1.1326335347       39.5364806804
  H         5.4811597002       -2.5580695547       38.4820175802
  H         1.5689313703       -1.2144904943       15.8541780772
  H         0.3735827177       -2.4870223683       16.3000809157
  H         2.0889774010       -2.7349511703       15.9875369773
  H        17.9760293086        3.2332256033       22.7650133052
  H        17.4420329362        1.7856566439       21.6517352368
  H        18.6060076489        1.5541020088       22.9438791556
  C        11.9000394560        7.1413484894       10.2847817943
  N        11.8865865510        8.4942408762       10.3510597812
  O        11.2245914856       10.1645026526       11.8436288381
  S        12.5750659010        6.4488192919        8.7450673731
  C        11.9715434973        9.4014473601        9.1703286161
  H        12.2692439149       10.3489773532        9.4730389190
  H        12.6633794584        9.1140616014        8.3733932214
  C        10.6296446515        9.3972870906        8.4799325957
  H         9.9313660003        8.7478010462        8.9695838608
  H        10.0557867285       10.3108633011        8.3181931573
  H        10.8049451614        9.0846299059        7.4151204411
  H        -3.4755310819       14.6072281627       16.0255727519
  C        -3.3124437030       13.5284760507       16.1499137244
  H        -4.3066766688       13.0997500135       16.4731704858
  C        -2.3066488522       13.4138386528       17.3058493752
  C        -2.7281022272       13.0000019989       14.8800530184
  C        -2.8660288659       13.3499058764       18.7084572921
  H        -1.5733655186       12.5949483015       17.2216954303
  H        -1.7322562717       14.3857721737       17.3419138550
  H        -2.4232425665       11.8890792623       14.9711143862
  H        -3.3403982428       13.0009506554       13.9444075443
  H        -1.7783095632       13.4673030949       14.5786259501
  C        -1.7654011512       13.2176192984       19.7517498638
  H        -3.5394464930       12.5179051171       18.7627376288
  H        -3.3662953369       14.2552435822       18.9668620585
  C        -2.3477517507       13.4463530388       21.1623884891
  H        -1.3249005010       12.2364026489       19.6877790308
  H        -0.9732762819       13.9295676765       19.5803923687
  C        -1.5499427087       12.9268079376       22.3615771340
  H        -3.2339033338       12.7735987299       21.2630775010
  H        -2.4792452242       14.5140365654       21.2164401053
  C        -0.2508140970       13.7502180767       22.5594731637
  H        -2.1865341536       12.9101804511       23.1925602972
  H        -1.2046025286       11.9530427804       22.0864561097
  C         0.9204626362       13.0195204066       23.2565053023
  H         0.1644690879       14.0860549878       21.6272308587
  H        -0.4343435610       14.5886121939       23.1533848838
  C         1.2542557379       11.7163892372       22.5128510215
  C         0.4520012278       12.3397110497       24.5079837373
  C         2.2267205172       13.8188300630       23.4653829755
  C         0.9415604232       10.5825945810       23.2996889201
  C         1.8306952034       11.2777580584       21.2798129828
  C         0.4555060342       11.0011012246       24.5447995829
  C         0.0558501149       12.9912492368       25.7110845765
  H         2.3851643332       14.4003429773       22.5441828584
  H         2.0306475796       14.5706723154       24.2818792397
  C         3.3886417372       12.9485397317       23.9947382736
  S         1.3909887729        9.1783143203       22.6665416428
  C         1.8927511514        9.9271602996       21.2200990993
  H         2.1161184205       11.9432379345       20.4764087464
  C         0.1544700266       10.3928860828       25.6889949186
  H         0.0481906161       14.0452604468       25.6785962786
  C        -0.2877562758       12.2910694297       26.8453151230
  H         3.7923392088       12.1455099569       23.2799708290
  H         3.1520023889       12.3462758534       24.8671834423
  C         4.7261441730       13.6654878126       24.2678294709
  C         2.3273792286        9.1393403764       19.9803494326
  C        -0.2490833187       10.9383601666       26.8662195286
  H         0.3061162966        9.3122825172       25.5492151031
  C        -0.8195031897       12.5778732120       28.0990620400
  H         5.2798617777       13.1743467591       24.9963889656
  H         4.4496307002       14.6153064790       24.6254058326
  C         5.4480081864       13.9083151247       22.9633992840
  C         2.3642014069        7.7202221802       19.8572266143
  C         2.6842468664        9.9517016859       18.7348704723
  C        -0.6339013076       10.1206234637       28.1032445802
  C        -0.9599055488       11.4208842633       28.8524838557
  S        -1.2180160790       13.9469400737       28.9643158655
  H         6.0340060089       14.7989665620       22.9896132075
  H         4.8036042122       14.0877327324       22.1497110007
  C         6.3939817018       12.6330770746       22.4918116210
  N         2.0560223230        6.8470546833       20.9063902398
  C         2.7028087039        7.0764591111       18.6554039248
  C         3.0098882753        9.2937562690       17.5754721652
  H         2.6860011627       11.0556600333       18.7903423752
  C         0.4691886391        9.3639245199       28.8922018862
  C        -1.9186941075        9.2188090790       27.8798147149
  C        -1.2481901352       11.7542982677       30.2351019502
  C        -1.3601558820       13.0909794053       30.4697260015
  H         7.0766204559       12.3643583850       23.2967420594
  H         5.7207382434       11.7821227172       22.1619147014
  C         7.1823569926       12.9408626078       21.2602289040
  S         2.2421883432        5.2961574154       20.3623008354
  N         2.7086792101        5.6980183407       18.8302457266
  C         3.0657624606        7.7744652126       17.4460013559
  H         3.3332986698        9.8712331464       16.7924233369
  H         0.7967490295        8.5339455436       28.3326251215
  H        -0.0476536271        8.8837054161       29.7388898199
  C         1.6288128339       10.1767466831       29.5076867820
  H        -1.6839214587        8.4202280152       27.1242669421
  H        -2.1252765751        8.7187240288       28.8174821503
  C        -3.1538432191       10.0824197957       27.6753191049
  H        -1.2917066258       11.0194985421       30.9515964310
  C        -1.6665580455       13.8322747921       31.7497229549
  H         7.8615181677       12.0562664577       21.0593309285
  H         7.7974485002       13.8931124030       21.4175920663
  C         6.3435117580       13.0659123963       19.9825158530
  C         3.3746059242        7.0479414497       16.2669865299
  H         2.1363484808       10.8209298953       28.7698020212
  H         1.2433256436       10.8797024800       30.2500272583
  C         2.5598541434        9.3648823033       30.3607917756
  H        -2.9317208834       10.7630636447       26.9084420341
  H        -3.3197615662       10.7847014611       28.4770235469
  C        -4.2964959969        9.2055396608       27.4465272511
  C        -1.8643081119       15.2311697402       31.8465003108
  C        -1.7000172919       13.0215810418       33.0326823962
  H         5.4277349573       12.4154647110       19.9816444922
  H         5.9226729794       14.0184314195       19.9105409460
  C         7.1282447713       12.9101102111       18.6822006737
  H         3.3273604521        5.9401769462       16.3884949159
  C         3.5979743230        7.4631260293       14.9309897439
  H         2.9602328380        8.5019819814       29.7288078490
  H         2.0289902839        8.8757148841       31.1640002883
  C         3.7892683510       10.1713696588       30.8555060449
  H        -3.9872661815        8.4475178238       26.7779152198
  H        -4.6562400167        8.6016157508       28.3337090327
  C        -5.4784973828       10.0607257601       26.8741508574
  N        -1.8751615678       16.1823002050       30.8081652118
  C        -2.1359075277       15.7963795589       33.0475638504
  C        -1.9784062139       13.6382320174       34.2631426732
  H        -1.4204073406       11.9635498885       33.0227628028
  H         7.7596841466       12.0232715770       18.7550808462
  H         6.3305576025       12.8669909525       17.9296028412
  H         7.7128955723       13.8348212633       18.6505411586
  S         3.7998005483        9.0741191488       14.3427048139
  C         3.6273597869        6.3802304324       13.8840612785
  H         4.3867510281       10.5377822019       30.0074008006
  H         3.3209181023       11.0496010195       31.3954311350
  C         4.7318389149        9.3667984111       31.7965892793
  H        -5.1733130574       10.8046094260       26.2128970019
  H        -5.9388220349       10.6292345385       27.7071676230
  C        -6.5295594396        9.2556923317       25.9808836329
  S        -1.9185440322       17.6484847908       31.4257895947
  N        -2.0786830451       17.2248705670       32.9823475839
  C        -2.2750845824       15.1159228875       34.2681852246
  H        -2.0551959827       13.0145813392       35.1199098123
  C         4.0615913416        8.3311524934       12.7662008696
  N         4.0781521960        6.9787330390       12.7834155399
  O         3.4886703920        5.1653882161       14.1819215492
  H         4.1750483436        9.1060126213       32.6866374703
  H         5.5947179818        9.9644852447       32.0957479828
  C         5.1007007828        8.0693887887       31.1102622991
  H        -6.0178335000        8.6954918768       25.1855820776
  H        -7.0807077372        8.5576813317       26.6073806687
  C        -7.4723050106       10.3191897031       25.4577104468
  C        -2.6163203602       15.9231264736       35.4433495998
  S         4.6990309010        9.1692222727       11.3618797281
  C         4.2377479202        6.2075822375       11.5142871040
  H         4.3070976251        7.2635425433       31.2329122725
  H         5.1816368733        8.1525930384       30.0138405273
  C         6.4796371201        7.4837046277       31.5693340716
  H        -6.9322630731       11.0527181109       24.8491420889
  H        -7.8304497093       10.9424929749       26.2667294430
  C        -8.8033168755        9.8010208603       24.8093132303
  H        -2.5945915748       16.9790619286       35.2741179672
  C        -2.9920593217       15.5320286460       36.7167825090
  H         4.9246380947        6.7024369190       10.7901208481
  H         4.7041132968        5.2404147863       11.6606558668
  C         2.8370369795        6.0231396546       10.9065755435
  H         6.7510103258        7.9456773389       32.5735616803
  H         7.1808923127        7.8605480643       30.7818143347
  C         6.3398628202        5.9846895253       31.6194544516
  H        -8.9978449755       10.4535374963       23.9529320145
  H        -8.4832941374        8.7884119639       24.4756698010
  C        -9.9700143825        9.6407932269       25.7865122498
  S        -3.3584563622       14.0411968749       37.3425129254
  C        -3.1747797754       16.6571350084       37.6944230219
  H         2.9315607760        5.4306216741       10.0126666296
  H         2.1335030422        5.5747238768       11.6020183087
  H         2.3975997542        6.9375791041       10.5232994401
  H         6.1788479687        5.6065171294       30.6406723786
  H         5.4724685210        5.7130589128       32.2628132039
  H         7.3459330330        5.6688207758       31.9744583735
  H       -10.3080776925       10.6064874910       26.0438751077
  H        -9.5865539481        9.0297196692       26.6251539255
  H       -10.7790335796        9.0120015666       25.3348330329
  C        -3.8332790751       14.8484786538       38.8313630546
  N        -3.6810474891       16.1769432646       38.8438301427
  O        -2.7104152805       17.8095135655       37.5128813529
  S        -4.2328237372       13.9929811804       40.2839101377
  C        -3.7201694125       16.8957846923       40.0001245100
  H        -3.9132872185       17.9942837524       39.8103947084
  H        -4.6039322705       16.5542787974       40.6625636135
  C        -2.3281579673       16.8386538821       40.7152326171
  H        -1.5631220299       17.4668580591       40.2428805336
  H        -2.4633169878       17.0203867649       41.7818986421
  H        -1.9002741208       15.8273425106       40.6988736591
