352
 i =     5600, time =     5600.000, E =        30.0301702285
  H        12.0584854415        5.4194183039       32.3398381066
  C        11.1667099740        5.9076911132       32.0708551179
  H        10.3769997330        5.2000947286       31.8290311081
  C        11.2683865856        6.7806380703       30.7634849818
  C        10.6582491496        6.6106866958       33.3083398404
  C        11.6869538829        6.2510480645       29.4555766544
  H        10.3961897944        7.3711893720       30.5612600770
  H        12.0177502553        7.5202542809       31.0904925999
  H        11.2727778786        7.4860939073       33.4587922979
  H         9.6201484823        6.9237734358       33.1379604009
  H        10.6736467823        6.0069237353       34.1791631990
  C        10.4179573535        6.0814670788       28.5309795538
  H        12.1286522330        5.2217028005       29.4657198469
  H        12.4691253150        6.8082425913       28.8935379997
  C        10.6477488835        5.5760534389       27.1670226495
  H         9.8468970574        5.3914653051       29.0685633125
  H         9.8198320663        7.0323881074       28.5957360587
  C         9.4478649692        4.9359936077       26.4573935054
  H        11.3920921420        4.7939581836       27.2238818705
  H        10.9543896464        6.4305927600       26.5462822862
  C         8.3565894546        6.0035845700       26.1253586651
  H         9.7055917247        4.3424009750       25.6021431471
  H         9.1410302742        4.0880513835       27.0943631040
  C         7.2155644970        5.3390208138       25.3521176854
  H         7.9809280841        6.4437139779       27.1009474549
  H         8.8075564714        6.7665543072       25.4340074318
  C         6.8920267118        3.9784719191       26.0327766083
  C         7.6969010452        4.5934999486       24.1238237636
  C         6.0138888378        6.1985047661       25.2013776694
  C         7.2478016608        2.8775823427       25.2342554546
  C         6.4107541919        3.6530343133       27.3045798941
  C         7.7891561224        3.2597831551       24.0764342162
  C         8.1633235602        5.2347405048       23.0079567755
  H         6.1520482431        7.1521444420       24.6627973876
  H         5.7677793258        6.6230101532       26.1842895638
  C         4.8154381077        5.4033568195       24.5343890044
  S         6.8364675735        1.3643238919       26.0403891967
  C         6.4048788241        2.2993725231       27.5779329903
  H         6.1395302018        4.4313543653       28.0816987246
  C         8.0399771932        2.6327655692       22.9510755853
  H         8.2229111123        6.3049657943       23.0304832118
  C         8.4942381631        4.5902241155       21.8540584573
  H         5.0260165932        4.8853317111       23.5870695254
  H         4.5397124808        4.5702811550       25.1720622272
  C         3.5256662680        6.2416420730       24.4085533001
  C         6.1058957295        1.6016789649       28.8191302207
  C         8.4295538321        3.2675716155       21.7938067404
  H         7.9311245439        1.5290353987       22.9051544263
  C         8.9796690379        4.9534195844       20.6181202049
  H         2.9645069195        5.6301296150       23.7255195136
  H         3.6512920024        7.1324491440       23.8156867001
  C         2.7058929700        6.4025255338       25.6257293520
  C         5.9923052683        0.2284484688       29.0868183675
  C         5.6327959852        2.4320078217       29.9660973204
  C         8.7882311517        2.5163206504       20.4851628738
  C         9.1068317792        3.8443527382       19.7856704096
  S         9.4136956152        6.4188196397       19.8214076491
  H         2.0626383976        7.2239831927       25.4367379571
  H         3.4170344268        6.8683330759       26.3668058852
  C         2.0010141244        5.1130025646       26.1583713339
  N         6.1195244340       -0.7871147009       28.1404110975
  C         5.6895481311       -0.3329245677       30.2924412320
  C         5.3187334742        1.8821875017       31.2233566348
  H         5.4106001081        3.4858587800       29.7378744369
  C         7.5867342757        1.6546770417       19.9341490790
  C        10.1154799963        1.6508283943       20.7022468203
  C         9.5483784362        4.1854940755       18.4780073425
  C         9.7644857445        5.5355994931       18.3466939479
  H         1.3531578891        4.6875298204       25.3900843112
  H         2.7480298563        4.3644289734       26.2380534904
  C         1.3622136879        5.4515368938       27.4634343306
  S         6.1731635509       -2.2274452886       28.8771223942
  N         5.6284692745       -1.7826969605       30.2997803889
  C         5.3917710577        0.4608183522       31.4273944386
  H         4.9537066637        2.5260689896       32.0084482399
  H         7.4510471217        0.8009416568       20.6282915405
  H         7.9720908778        1.1902250914       19.0236459307
  C         6.3052394389        2.5167422546       19.6830021172
  H        10.3280421046        0.9269734821       19.9188623286
  H         9.9901327430        1.1173616005       21.6321550244
  C        11.4199450523        2.4745089026       21.0223362103
  H         9.7123906205        3.4611607185       17.7202014971
  C        10.1092719902        6.3359239623       17.0602833580
  H         0.6489057586        4.6405754212       27.6343536030
  H         0.7804199377        6.3103079080       27.5070682001
  C         2.3277200501        5.3703014980       28.7055277505
  C         5.2093328395       -0.1531515084       32.6780648381
  H         6.4922701132        3.4554147483       19.1818181783
  H         5.8792434137        2.8014318913       20.7309620166
  C         5.2442078537        1.7631329311       18.9128808738
  H        11.3840193076        3.1584591103       21.8415664218
  H        11.7076609516        2.9871475864       20.0976799294
  C        12.5728413513        1.4657541625       21.1672383559
  C        10.1623935784        7.7115033331       16.9095068671
  C        10.2715454577        5.6352563653       15.7475003941
  H         2.5999770054        4.3632590190       28.7535788103
  H         3.3111109479        5.7711691838       28.6341654038
  C         1.6431471243        5.9544973384       29.9988069086
  H         5.3217620541       -1.1393185941       32.7352057107
  C         4.7882049829        0.2658296618       33.9456536210
  H         5.1022461910        0.8659408823       19.4573133732
  H         5.7808015712        1.5891833891       18.0586965285
  C         3.8427974036        2.4190041163       18.7750118108
  H        12.4939410669        0.8197740073       22.0683625996
  H        12.8136017277        1.0568466914       20.2300385616
  C        13.7911122857        2.4565027897       21.4418583329
  N         9.8814607585        8.5698075172       17.9516264829
  C        10.4153023699        8.3486357011       15.6914124373
  C        10.5570983160        6.2520995564       14.4960580207
  H        10.1361448321        4.5821321638       15.7332779565
  H         2.4213631500        6.4766802737       30.5389528500
  H         0.9178678839        6.7680496847       29.7263835306
  H         1.0596168055        5.2235663010       30.5663909633
  S         4.3888021930        1.7375279738       34.4760815187
  C         4.7494454100       -0.8342330560       34.9382665859
  H         3.5624067663        2.9871836563       19.6858095121
  H         3.7031004508        3.1282229731       17.8977402962
  C         2.7793916571        1.2854002173       18.5634733145
  H        13.4218535947        3.1501685954       22.2236136910
  H        13.9986383403        3.0202917378       20.5490530969
  C        14.9880558327        1.6766767587       21.9774123372
  S         9.9269456001       10.0778952713       17.3269661059
  N        10.3141775013        9.7621699462       15.7924218739
  C        10.5690075024        7.6959847128       14.4228746239
  H        10.6367723473        5.6604830368       13.6242397929
  C         4.3444710333        1.0155328637       36.1040762197
  N         4.4013428085       -0.3051780844       36.1223277835
  O         4.7637716286       -2.0615940205       34.6959637989
  H         1.8247723430        1.7322088595       18.5198216233
  H         2.8204866601        0.5736096093       19.4134759105
  C         2.8479736176        0.5486344513       17.2291653112
  H        14.6859229048        0.9497667548       22.7714010086
  H        15.5850847041        1.2045992715       21.2551373563
  C        15.8058036087        2.6548828974       22.8023664735
  C        10.9637104111        8.3668152907       13.2376897498
  S         3.7282294915        1.9793553909       37.4476611380
  C         4.5116075589       -1.0505338043       37.3331955677
  H         2.9560000421        1.2491053125       16.3664388697
  H         3.7222519811       -0.0004532072       17.2340024846
  C         1.8303037572       -0.5134265925       16.9000829271
  H        15.0828464626        3.0547492913       23.6300148846
  H        16.2032704918        3.5338628375       22.2547598951
  C        17.0099052977        2.1178674768       23.3720386939
  H        10.6880227720        9.4271892633       13.3111763224
  C        11.6143844300        8.0124075273       12.1345323062
  H         3.8078852143       -0.7183608751       38.0759199496
  H         4.3265099402       -2.1259663474       37.0756587339
  C         5.9265783393       -0.7785567388       37.8307947513
  H         1.7193926301       -0.6868575914       15.8776124954
  H         0.8504199764       -0.2235453499       17.1576430544
  C         2.1957062899       -1.8986209100       17.4687910316
  H        17.1843288285        2.7802430108       24.2502956209
  H        16.7294722457        1.1135867150       23.6693544724
  C        18.1566346534        2.0086276633       22.4136576461
  S        12.0413629247        6.4466976791       11.6416621713
  C        11.7753805314        9.0225052347       11.1057802893
  H         6.2210766610       -1.5503736152       38.4254512584
  H         6.6329466684       -0.7627276970       37.0172714906
  H         6.0592201332        0.1338448172       38.3941194773
  H         1.2983353507       -2.5460525557       17.2799063029
  H         2.2503789380       -1.6694937669       18.5359675129
  H         3.1415520189       -2.3592404778       17.1901176858
  H        18.1195714328        2.6701611981       21.5560932656
  H        18.0601517432        0.9194203973       22.0750219388
  H        19.1310820659        2.1096408800       22.9252838411
  C        12.4945705239        7.1509993578       10.0877436856
  N        12.3669291955        8.5027632089        9.9945034693
  O        11.4252852121       10.1965787539       11.2550623899
  S        13.3243876228        6.3008095684        8.7492476200
  C        12.3132918745        9.3620784671        8.8082432592
  H        12.4402651477       10.4708271840        8.9868822181
  H        13.0281763442        8.9287978933        8.0943872120
  C        10.9720565204        9.2315269327        8.1941163885
  H        10.1446830595        9.9166383124        8.5996107338
  H        11.1719937913        9.2001581068        7.0734915853
  H        10.5117316803        8.3035527591        8.5333396316
  H        -3.6218574285       12.9576816420       16.4021812288
  C        -2.6917354504       13.4137080813       16.2706247485
  H        -1.8720944766       12.6511272639       16.4559024852
  C        -2.5113729392       14.5980298518       17.3136389779
  C        -2.7087413224       13.7347764677       14.8079400985
  C        -2.7935628141       14.2290866282       18.8145605644
  H        -1.5348317654       15.1140440995       17.1938120247
  H        -3.2167881881       15.3519325286       17.0560155697
  H        -3.7418886093       13.8018669821       14.4737420766
  H        -2.2486807903       14.6576187077       14.6031293335
  H        -2.1800183012       13.1154437220       14.0050465539
  C        -1.6097515875       14.1469528314       19.7946406745
  H        -3.4247710495       13.3214506075       18.8850289623
  H        -3.5049978174       15.0191906887       19.1659581702
  C        -2.1582785669       13.8253382329       21.2403774215
  H        -1.0731262273       13.3156598327       19.3295466163
  H        -0.8701208647       14.9469353073       19.7464949215
  C        -1.0939627684       12.9755356354       22.0230185077
  H        -2.9990277077       13.1364552890       21.1636671045
  H        -2.5184894491       14.7595667101       21.7961693405
  C         0.1463426137       13.8136872274       22.4516049583
  H        -1.6104178766       12.6134774572       22.8966673266
  H        -0.7839522025       12.1163537050       21.4228896950
  C         1.2524384706       13.0957190993       23.2844551677
  H         0.3744349016       14.3628899728       21.5853338371
  H        -0.2427238900       14.6271481086       23.1112250503
  C         1.6170562346       11.8113905833       22.5876538847
  C         0.7584009960       12.3993339017       24.4869242486
  C         2.6109773944       13.9544639340       23.5017833596
  C         1.3079706102       10.6617964319       23.3026582974
  C         2.1378991926       11.4223699581       21.3373156057
  C         0.8148899204       11.0731108500       24.5786498077
  C         0.3329397758       13.0840191060       25.5990321130
  H         2.7959153504       14.5996273611       22.7070455986
  H         2.5703287302       14.6399160971       24.3993229128
  C         3.8125168794       13.0454420987       23.6734746935
  S         1.8008631769        9.1856415315       22.5559133814
  C         2.2586679309       10.0767301248       21.1483991615
  H         2.5701044952       12.1520615742       20.6655540442
  C         0.4333805971       10.3961859039       25.6935073073
  H         0.2539619288       14.1923222701       25.5955887466
  C        -0.0477649333       12.4724854281       26.7527422736
  H         4.0449569288       12.3250513418       23.0033241423
  H         3.6097607633       12.4812301424       24.5934484705
  C         5.1716797862       13.8115847150       23.7209233886
  C         2.5162202518        9.4110021911       19.8336950746
  C        -0.0997516647       11.0506163261       26.8339468566
  H         0.5236743258        9.3108530328       25.5769988980
  C        -0.4958412005       12.8798973463       28.0384609994
  H         5.8073402852       13.2454104144       24.3404184855
  H         4.9391618062       14.7326126593       24.2999497704
  C         5.7825709280       14.0971544286       22.3457155046
  C         2.3976991923        8.0306290170       19.5693672971
  C         2.7851773027       10.2595227241       18.6958389982
  C        -0.6072568161       10.3566187832       28.1160188356
  C        -0.8855584155       11.7365207564       28.7526631289
  S        -0.6992575070       14.3777589660       28.8913383393
  H         6.3585790324       15.1046272669       22.4009873967
  H         4.9753606494       14.3067108077       21.6849300046
  C         6.4940936850       12.8956580469       21.7166636156
  N         2.1111038589        7.0786876728       20.5065998384
  C         2.7898619922        7.4614504357       18.3571900891
  C         3.1062441654        9.6774291763       17.5381191799
  H         2.8404677206       11.3218763270       18.7418643809
  C         0.5361468272        9.5347385018       28.8274394654
  C        -1.9360032643        9.5601242487       27.8023275668
  C        -1.3316051173       12.1785270467       30.0544259116
  C        -1.2229556690       13.5058497345       30.2576750353
  H         6.9707582165       12.4322055865       22.5764853907
  H         5.7921430374       12.1293968200       21.2094995573
  C         7.5228650108       13.3566607774       20.6700883746
  S         2.1060523118        5.5679604656       19.8178067992
  N         2.6648015145        6.0488975261       18.3352485175
  C         3.2060888618        8.2511123718       17.2469113839
  H         3.2004354037       10.3850941623       16.7470807222
  H         0.8270800073        8.6224771496       28.2458894857
  H         0.2176599636        9.0440765238       29.7165139810
  C         1.7124349615       10.3280121302       29.2457197624
  H        -1.9198354104        8.7678558023       27.2033261586
  H        -2.1734083473        9.0920375802       28.6908099734
  C        -3.1696648539       10.3622549729       27.4818613200
  H        -1.6585116882       11.4383642949       30.8231175446
  C        -1.5312927705       14.2265743342       31.5126054204
  H         8.1810920289       12.5750752850       20.3289336166
  H         8.1681565161       14.1321700533       21.0615150716
  C         6.7005489719       13.8589974908       19.4273048029
  C         3.5233576774        7.5460354158       16.0506017832
  H         2.1732659406       10.8340852078       28.4178084391
  H         1.4267321632       11.1268189046       29.9413840102
  C         2.7831716835        9.4974474387       29.9951238321
  H        -2.8776131570       11.0915537455       26.7555466330
  H        -3.3656938386       10.9402347569       28.4307571598
  C        -4.2480864573        9.4606181866       26.9266149995
  C        -1.5055921286       15.6537210367       31.7052285500
  C        -1.8926654069       13.4349819372       32.7957074201
  H         5.5714179623       13.6915192370       19.3474913837
  H         6.7758307503       14.9402596659       19.4352777128
  C         7.3338069347       13.5343565189       18.1116923514
  H         3.2735653581        6.5073815247       15.9675834037
  C         3.8918481301        8.0069480759       14.7923155833
  H         2.9558056228        8.6303497682       29.3464866853
  H         2.4257050925        9.1252595113       30.8990291594
  C         4.0051240834       10.3477699375       30.2351828679
  H        -3.7696816339        8.8771025272       26.2372358903
  H        -4.7626594949        8.8800927654       27.6941377914
  C        -5.2180610380       10.1757580932       26.0947552216
  N        -1.0944382450       16.5268984896       30.7401275049
  C        -1.8922640545       16.3309315375       32.8725787407
  C        -2.2902478890       14.1231311619       33.9555682354
  H        -1.7327480821       12.3408569251       32.8506650448
  H         7.7460754235       12.5620922237       17.9784584864
  H         6.6057865231       13.6905782609       17.2995373142
  H         8.1744199312       14.2652975480       18.0669106754
  S         4.1189380731        9.6136499319       14.3780318598
  C         3.8881728332        7.0311013735       13.7290544855
  H         4.0168473540       11.0932060305       29.5043505013
  H         3.9636663440       10.7501021705       31.3020885860
  C         5.3765749975        9.7318243724       30.0779414694
  H        -5.4448966827        9.5205102299       25.2815737123
  H        -4.8444916538       11.0897913897       25.5806810295
  C        -6.5228267550       10.4348291227       26.7243035590
  S        -1.3134482236       18.0722988450       31.2831407611
  N        -1.8692566146       17.7214624972       32.7677583253
  C        -2.3130879007       15.6586493739       34.0040716616
  H        -2.4536876002       13.4989343826       34.8400445703
  C         4.2619453556        8.9965399942       12.7175885106
  N         4.2147975317        7.6175949049       12.6481021316
  O         3.6782904338        5.8600380791       13.8175038579
  H         6.2172142830       10.4139302902       30.1657164541
  H         5.4560703391        9.4191879159       29.0805560391
  C         5.5475743218        8.5080287128       30.9482409301
  H        -6.9445998435        9.4782483223       26.9985397195
  H        -6.4843150157       10.9707905316       27.6366270813
  C        -7.5089316888       11.1748104388       25.7527436439
  C        -2.6318187406       16.3446320161       35.3013354793
  S         4.3937197688       10.0451587248       11.2739583709
  C         4.2290887823        6.9311703200       11.3220607761
  H         6.0387267284        8.7692916531       31.9251829795
  H         4.5754746282        8.1043351724       31.1991736765
  C         6.4282739148        7.4416905081       30.1942899136
  H        -6.9609636764       11.6396205060       24.9426515603
  H        -7.9146397463       12.0152879507       26.3546840998
  C        -8.6532895981       10.3081911402       25.2019528036
  H        -2.3914885672       17.3829733842       35.2447578382
  C        -3.1547564917       15.9304965395       36.4892853636
  H         4.8753922813        7.4801990829       10.5892301847
  H         4.7206715295        5.9683053428       11.3718338669
  C         2.7791234544        6.9058887944       10.6968209215
  H         7.4679350968        7.7540442180       29.9738615590
  H         5.9216813995        7.2942638609       29.2888872169
  C         6.5305356775        6.1220858368       30.9822317726
  H        -9.1493791954       10.8105210393       24.3832152817
  H        -8.2826058745        9.3918932925       24.7648970678
  C        -9.8171993336       10.0576058610       26.2180890073
  S        -3.8632728293       14.3309291384       36.7263390711
  C        -3.3161617518       16.8565323490       37.6097107536
  H         2.6467389110        7.6664836736        9.8467376153
  H         2.5945735182        5.8650704121       10.3422772596
  H         1.9853656742        7.1808391337       11.3845167620
  H         5.5359316253        5.8387760441       31.3051737687
  H         7.0326019793        6.1995060639       31.9887645966
  H         7.0910176409        5.3919067425       30.4314318485
  H        -9.5230711573        9.3737017754       27.0099566722
  H       -10.7292103848        9.5300979275       25.8268805598
  H       -10.2116333937       10.9008386461       26.7131018329
  C        -4.1009672871       14.8626151557       38.4228116468
  N        -3.8911319212       16.2173298614       38.6138550182
  O        -2.9645618619       18.0246837067       37.4964647664
  S        -4.8823921214       14.0159289141       39.7473523036
  C        -4.2792449824       16.9794870552       39.8433584195
  H        -4.5736540442       17.8677755626       39.4226679918
  H        -5.1024322631       16.6528967554       40.4369464077
  C        -3.0274450299       17.2020252953       40.7190888940
  H        -2.9704051823       16.5559337012       41.5689440819
  H        -2.0498573112       17.2160598048       40.2843957750
  H        -3.1139986453       18.2367276893       41.0761351029
