352
 i =    92200, time =    92200.000, E =        25.3308048588
  H        10.9844287922        7.6540625377       31.7736082846
  C        11.8617633617        7.1702723503       32.1210227647
  H        12.6559173841        7.8506310114       32.0781827715
  C        12.2928700093        6.1661276981       31.1225637180
  C        11.3925908000        6.5450947590       33.4286004258
  C        11.2186652945        5.3193303635       30.4558730483
  H        12.7718032479        6.7070336934       30.2737372151
  H        13.1352753821        5.5680079829       31.6097891090
  H        12.2253436197        6.5549095271       34.1533998732
  H        10.6338010334        7.1243712274       33.9093075915
  H        10.9869558127        5.5334842266       33.3738578693
  C        10.4320495196        5.8956862042       29.2566748482
  H        10.4835913589        5.0166160654       31.2522358941
  H        11.6597809161        4.3481671986       30.2042017725
  C        10.9641409637        5.4375936028       27.8616075802
  H         9.3383245718        5.5864725819       29.2220162661
  H        10.1645553755        6.9295842677       29.4958238182
  C         9.9484555582        4.6771150308       26.9815060189
  H        11.8589799154        4.8864587252       28.0207766671
  H        11.3094507870        6.3424732751       27.2771643565
  C         8.8466563959        5.6075651661       26.4618319515
  H        10.4321992859        4.1526161021       26.1510338162
  H         9.5021869867        3.9687424368       27.6228257535
  C         7.6617280414        4.9884066385       25.6927562904
  H         8.4580764832        6.1751060214       27.2935961231
  H         9.3732390464        6.3251733128       25.8554233224
  C         7.3386077269        3.6347997793       26.3291269850
  C         8.0492650738        4.2757693818       24.4155083707
  C         6.4229219897        5.9024708199       25.3140060875
  C         7.6040973383        2.5262457335       25.5489274773
  C         6.9220068246        3.1803910397       27.5650591869
  C         8.0137284425        2.9084774731       24.3316342737
  C         8.6034233575        4.9503310713       23.3215291703
  H         5.9128023785        5.4212451001       24.4681585951
  H         6.7562907925        6.8382427611       24.8452292694
  C         5.4158218431        6.4266543582       26.3268070224
  S         7.0810975724        1.0056962711       26.2316372977
  C         6.6878020366        1.8743744012       27.7503823113
  H         6.8548267912        3.9730430446       28.2635555334
  C         8.3468264077        2.2886583968       23.1040454350
  H         8.5931097479        6.0234502272       23.3134218786
  C         8.9792193476        4.3358600578       22.1611191958
  H         5.5962136093        6.1189901567       27.3127725540
  H         5.4481648751        7.5017484489       26.2798416768
  C         4.0526217898        5.9961821669       25.8791401271
  C         6.2232254147        1.2640023520       29.0581999912
  C         8.8358888120        3.0362182061       21.9931902676
  H         8.3529372193        1.2478170673       22.9161423637
  C         9.4048073843        4.6530743513       20.9377363234
  H         4.1589179774        4.9204663947       25.6432019302
  H         3.7379672930        6.5749278058       25.0838309485
  C         3.0587481767        6.1540837286       27.0841279608
  C         6.1828576499       -0.1017256307       29.3044499854
  C         5.7144717433        2.1463565674       30.1146304080
  C         9.1778619372        2.2642844887       20.7747357330
  C         9.5222027015        3.5860589354       20.0866005621
  S         9.7349586874        6.1720367450       20.1790672790
  H         2.3176366392        6.8977091308       26.7714246277
  H         3.5189970695        6.5664073352       27.9289659384
  C         2.3920557810        4.8435318549       27.4254035092
  N         6.4040366339       -1.0888445558       28.3154609554
  C         5.6677356244       -0.6646300861       30.4002368947
  C         5.3548709521        1.5919326046       31.2942867725
  H         5.5776772935        3.1940474176       29.9046229578
  C         7.9969209188        1.4905165870       20.1625405582
  C        10.3813793256        1.3485703753       20.9841266212
  C         9.8512161178        4.0448782069       18.8159970883
  C         9.9857603340        5.3806675978       18.6992544479
  H         1.8985649963        4.5859131524       26.4860087992
  H         3.1520211564        4.0743308798       27.6131356618
  C         1.2735818116        4.9906277340       28.4669035999
  S         6.1469942785       -2.5769719131       28.9718820466
  N         5.8094072217       -2.1110948183       30.5227657619
  C         5.4195109844        0.1111550518       31.5607508056
  H         5.0970938401        2.3089026762       32.0459546760
  H         7.5319416954        0.8600164931       20.9467186556
  H         8.2233588257        0.8185023915       19.3218519194
  C         6.6981632713        2.3369091285       19.6998622527
  H        10.4402313839        0.6279610018       20.2204354789
  H        10.1451461494        0.7165882284       21.8452338456
  C        11.7143695158        2.0492920456       21.1907639916
  H         9.9183418852        3.3967890218       18.0209325823
  C        10.2478152609        6.1736270542       17.4149180716
  H         0.7462911924        4.0749051214       28.6852932747
  H         0.4836395572        5.5174792180       27.9335699466
  C         1.6973006432        5.6530242079       29.8118022835
  C         5.0475639195       -0.4741918453       32.7790026865
  H         7.0044558351        2.9642132985       18.8705911571
  H         6.3751160508        2.9210579634       20.5488826716
  C         5.5083195969        1.4548213531       19.4084948240
  H        11.5689739508        2.6109589743       22.0884821904
  H        12.0093196317        2.5369079248       20.3122531098
  C        12.7916636482        1.1168493945       21.6211607645
  C        10.1240173518        7.5938701966       17.2653232168
  C        10.3872227289        5.3960210440       16.1370318313
  H         1.8920527410        6.6792857444       29.6754620494
  H         0.9154737218        5.7100606376       30.5825843883
  C         2.9760740682        5.1467300946       30.5024020520
  H         5.2908078082       -1.4526527454       32.7248539645
  C         4.7973585764       -0.0386643263       34.1008716606
  H         5.0450506602        1.2101015456       20.3476296960
  H         5.8541827281        0.6461552288       18.8496058592
  C         4.3667310525        2.1212826366       18.5858990907
  H        12.5751327519        0.5839690377       22.5442149916
  H        13.0300494746        0.3624922634       20.8353187586
  C        14.0141833328        1.9823394518       21.9037291761
  N         9.7435979994        8.5759838625       18.2243918541
  C        10.3560481678        8.2216034849       16.0077410715
  C        10.6434152506        6.0003515366       14.8905870494
  H        10.3072288006        4.3021557280       16.1566813145
  H         3.5107270946        5.9362650760       30.9709896160
  H         2.7478643359        4.3821159386       31.1979872976
  H         3.6551608739        4.7032042379       29.7093460397
  S         4.4978131972        1.5959084530       34.4631786187
  C         4.7440682527       -0.9806703012       35.2028485003
  H         4.1205488893        3.0267647408       19.0884308822
  H         4.5699715118        2.4182075213       17.5709675857
  C         3.1075418963        1.2348265549       18.3743787990
  H        13.6476527567        2.7757353500       22.5016298216
  H        14.5726266982        2.3469521269       21.0643068948
  C        14.9899216517        1.3070673973       22.6842943654
  S         9.7202852740       10.1030902145       17.5477251150
  N        10.1304068962        9.6324908740       16.0334599929
  C        10.6702856155        7.5296654134       14.8292746968
  H        10.8056805911        5.4344052014       13.9884567645
  C         4.2404889365        1.0081880952       36.0963846663
  N         4.3444862193       -0.3244640634       36.2955868735
  O         5.0581621111       -2.1698198104       35.0230894792
  H         2.6924418506        1.2326696353       17.3782628927
  H         2.3152684645        1.7653060357       18.8605040350
  C         3.1501146995       -0.2194797742       18.9890922893
  H        14.3469346332        0.8278162999       23.4611262331
  H        15.4762552698        0.6116568245       22.0179998560
  C        15.9760455425        2.2893981204       23.3502393134
  C        10.9595824752        8.3741279258       13.6921797710
  S         3.8379400120        1.9930327081       37.5322696650
  C         4.3545458677       -1.1076039365       37.5193874817
  H         4.0700910733       -0.7094901355       18.6749860745
  H         3.3128852163       -0.1457511470       20.0588041539
  C         2.1109790663       -1.1844733221       18.6670415064
  H        15.3218876471        2.8010938170       24.0642598091
  H        16.2374525025        3.0682930583       22.6097738132
  C        17.2403765561        1.6243149412       23.9285020505
  H        10.8074561417        9.4409341725       13.7332567731
  C        11.3775165011        8.0468457963       12.4069435428
  H         3.7689810226       -0.5283708452       38.1842451973
  H         3.7333572569       -2.0341312149       37.4453375336
  C         5.8262155503       -1.4688866385       38.0875708727
  H         1.1248198400       -0.7627195338       18.5170061404
  H         2.0932563021       -1.7556170295       19.5368648165
  C         2.4609622418       -2.0823908792       17.4474123757
  H        17.3882936803        2.2313760361       24.8211390577
  H        17.1363982690        0.5624430347       24.2646134989
  C        18.3882756065        1.6657636103       22.8789005077
  S        11.7374336615        6.4056589654       11.9048360627
  C        11.5851016074        9.0955252980       11.3927430583
  H         6.2444088156       -2.2804225299       37.5195249740
  H         6.5512357273       -0.6407302569       38.1578366985
  H         5.5824722175       -1.7264345518       39.1290836020
  H         3.4448550111       -2.4298033675       17.4395645511
  H         2.3357270894       -1.4437434533       16.5423807538
  H         1.7673206490       -2.9494671180       17.3315952558
  H        19.2524173721        1.1884981694       23.2396546748
  H        18.6557245221        2.6498308215       22.5468405822
  H        18.0703744396        1.0414581724       22.0474292280
  C        12.2385019030        7.1931853653       10.3987762349
  N        12.1749522736        8.5057274737       10.3350332398
  O        11.4063900103       10.3052659064       11.4820190017
  S        12.8182732280        6.4049556786        8.9280584606
  C        12.6380076686        9.3730133688        9.2470770820
  H        12.7961480936       10.4335540654        9.6105704946
  H        13.4978862208        9.0051982948        8.7160503653
  C        11.5238835946        9.5030674193        8.1758147609
  H        11.0127274121        8.5069022345        8.1104743936
  H        10.7785114647       10.2263049942        8.5080277687
  H        12.0074833379        9.8735284552        7.2299492398
  H        -3.3866397394       14.0833806378       16.5195500113
  C        -2.5422109503       13.5752076082       16.2170067776
  H        -2.6963655714       12.4196347956       16.2175628077
  C        -1.6172172340       13.8718178667       17.3792548390
  C        -2.1204761478       14.0248988492       14.8588445724
  C        -2.2709004510       13.6927097460       18.7642977220
  H        -0.7255934069       13.1998636025       17.3998001212
  H        -1.1920887914       14.8261170228       17.1963556312
  H        -2.8800529615       14.5384489990       14.3224172641
  H        -1.2836794148       14.8014662051       14.7801554732
  H        -1.8426730320       13.2840623558       14.1042268333
  C        -1.3568022205       13.7360530400       20.0324039852
  H        -2.5675845035       12.6719032245       18.7247961952
  H        -3.0499364442       14.3485877738       18.9739389118
  C        -1.9861866580       13.5714740065       21.4242030754
  H        -0.5357711468       13.0074608545       20.0731483736
  H        -0.8418762474       14.6540449491       20.0197796776
  C        -1.0713407506       12.8567243888       22.3735403912
  H        -2.7380052469       12.9056899761       21.2143186368
  H        -2.3888000664       14.5164469089       21.7463787079
  C         0.1347523035       13.7582560199       22.7453949694
  H        -1.6210869749       12.5696300607       23.2565802602
  H        -0.7381537498       11.9022731038       21.9509549269
  C         1.2811541196       12.9894862537       23.4953454356
  H         0.5603232521       14.3170632883       21.9249359344
  H        -0.2167135773       14.5643606540       23.4484922423
  C         1.7030580207       11.6623047209       22.8436066594
  C         0.9006348572       12.2498579203       24.7119851806
  C         2.5251887511       13.9708848048       23.8017311937
  C         1.4904977174       10.5708946579       23.6261679614
  C         2.2587331450       11.3171614704       21.5510157565
  C         0.9185651449       10.9063603035       24.7973345487
  C         0.3072841126       12.9318352888       25.7965209560
  H         2.7846900179       14.6414935543       22.9412353679
  H         2.1769415484       14.6040142328       24.5625205128
  C         3.8770254812       13.4338687862       24.2655974434
  S         1.8692225089        9.0600893863       22.8240833870
  C         2.3098872150        9.9620115429       21.3836121689
  H         2.3220671326       12.1376148400       20.8178703911
  C         0.4375941640       10.2593579001       25.9010894648
  H         0.2236669379       14.0334632241       25.7775754045
  C        -0.0717854148       12.2480843916       26.9435236415
  H         4.0662931154       12.5569927508       23.6542431037
  H         3.8432522049       13.1449358331       25.2757153094
  C         5.0532860491       14.3242834610       23.9887835663
  C         2.5883405393        9.3140575700       20.0410426283
  C         0.0649396985       10.8796548681       27.0330377577
  H         0.4559682168        9.2188946499       25.8409671993
  C        -0.4256940376       12.5639300973       28.1970708293
  H         5.8555051986       13.9161703787       24.5766518160
  H         4.8835192903       15.2711397885       24.4214924830
  C         5.5726435226       14.3855146457       22.4948599994
  C         2.5262178615        7.9109889319       19.7653339354
  C         2.9932851143       10.1910296512       18.8924684251
  C        -0.2748239896       10.0949164494       28.2645996495
  C        -0.5053352691       11.4438533452       29.0338850649
  S        -0.7361450956       14.1236750305       28.9211263392
  H         6.2682569482       15.2862264913       22.3896411006
  H         4.7161349668       14.7030340786       21.9402288216
  C         6.3803929701       13.0728187429       22.1016402807
  N         2.1482422675        6.9116701418       20.7035957800
  C         2.7724010257        7.3748138672       18.4740033888
  C         3.1974399974        9.6971412517       17.5836101610
  H         2.9858617552       11.2276332464       19.0946545850
  C         0.9048752601        9.3668484766       28.9347374374
  C        -1.5299339817        9.2138933401       28.1966665179
  C        -0.8085400102       11.8687739054       30.2700504695
  C        -1.0112920835       13.2326582647       30.4077309552
  H         7.2628810025       12.9126195485       22.7337721485
  H         5.7807709346       12.1739222721       22.1008903411
  C         6.9325882253       13.1091240914       20.6952769897
  S         2.1400241182        5.4781705519       19.9882797010
  N         2.6365787795        5.9675102266       18.4834959033
  C         3.1469623398        8.1959259808       17.3747906445
  H         3.4025298043       10.4698164320       16.7828054577
  H         1.3580945496        8.6461600101       28.2758725374
  H         0.4743234921        8.8317860421       29.7683089286
  C         2.1737833702       10.1781351541       29.3818042296
  H        -1.3849173983        8.4045135348       27.4559218964
  H        -1.7667495824        8.7814679555       29.1354992275
  C        -2.7800364149        9.9209916068       27.8303463291
  H        -0.8965478859       11.0966386083       31.0226165893
  C        -1.4512707180       13.9932937825       31.7062709649
  H         7.4218436690       12.1443118330       20.4060077464
  H         7.7011750950       13.9244425145       20.4343872079
  C         5.8237799847       13.4209908288       19.6991906683
  C         3.4767850680        7.5178272098       16.1713491713
  H         2.5444302954       10.6244703611       28.4295628522
  H         1.8987146053       10.9935375078       30.0356218415
  C         3.2246671129        9.3224282946       30.1445763102
  H        -2.6447568293       10.4928723256       26.9502915717
  H        -3.0216320381       10.5385493428       28.8117291487
  C        -3.8810716002        8.9348996787       27.4434502901
  C        -1.4981826577       15.3802448819       31.9009156562
  C        -1.8167836896       13.2083379505       32.9098089548
  H         5.0138293633       12.6769212869       19.7962261574
  H         5.4724177850       14.4312020742       19.9794729548
  C         6.4146763957       13.5084292105       18.3100365066
  H         3.6307553477        6.4359203981       16.2389284256
  C         3.8128933716        8.0610521655       14.9281545548
  H         3.2428876323        8.4344484836       29.5079591825
  H         2.8068371347        8.9723136830       31.0323507912
  C         4.6220136081       10.0690352415       30.2692923579
  H        -3.4193144559        8.3202793581       26.6328277188
  H        -4.1295390517        8.2171516702       28.2696357843
  C        -5.3077325780        9.5765556858       27.1799711760
  N        -1.2456925755       16.2890707275       30.9034494721
  C        -1.8998527683       16.0062675287       33.0581678481
  C        -2.1298389074       13.7861261230       34.1168569684
  H        -1.7332941079       12.0812099755       32.8092148519
  H         6.9260477478       14.4897464933       18.1221341920
  H         7.2727551862       12.7847180304       18.2389495503
  H         5.6797932689       13.1880368931       17.6202819387
  S         4.0051632631        9.6626965348       14.5073148192
  C         3.8517604092        7.0777452733       13.8486503923
  H         4.8961987164       10.4328444886       29.3589521021
  H         4.5020495479       10.9413072925       30.8892611495
  C         5.7228123117        9.2145502874       30.8251037568
  H        -5.5348433238       10.3682727540       27.9638954321
  H        -5.9751836929        8.7872508064       27.2899509895
  C        -5.4882505226       10.1074555772       25.7748753219
  S        -1.4452614830       17.8278831667       31.4786566077
  N        -1.9208520042       17.4301316372       32.9813630323
  C        -2.1988728103       15.2944683549       34.2683360715
  H        -2.1977948885       13.0783909670       34.9689825607
  C         4.2127547672        9.0269772819       12.8484179340
  N         4.1051537639        7.6708247777       12.6648719658
  O         3.5963159132        5.8544432815       13.9696620046
  H         5.3591560437        8.5980610112       31.6165788890
  H         6.4276378562        9.8615269086       31.3074622428
  C         6.2815537356        8.2880306307       29.7480130341
  H        -4.5558709168       10.6342913015       25.5089475014
  H        -5.6274527252        9.2369599499       25.1389146974
  C        -6.7074116600       11.0396519724       25.6316143328
  C        -2.5025341079       15.9983658207       35.4867085940
  S         4.7940219298       10.0735660736       11.5430456208
  C         4.1349556958        6.9185395252       11.4126002217
  H         5.5688164619        8.3603448477       28.9578655747
  H         7.2309570647        8.5854111720       29.3631716269
  C         6.4198989023        6.8302680550       30.1084014559
  H        -6.8580345159       11.3083238552       24.5989670897
  H        -6.4405509925       12.1072773724       25.8629466781
  C        -7.9738116745       10.6380123284       26.2298385172
  H        -2.0993489977       16.9623342336       35.4182508229
  C        -3.0285396071       15.4899428892       36.6683422662
  H         4.9402735999        7.1400878394       10.7178157163
  H         4.4223673998        5.9833923118       11.7561903153
  C         2.6709523750        6.8824149224       10.7920817611
  H         6.9965243087        6.2763033238       29.3818255914
  H         5.3831334033        6.3625874770       29.9608914409
  C         7.0859145975        6.6181042529       31.4292026471
  H        -7.8897554661       10.4656119252       27.2630502214
  H        -8.4692185258       11.6356420828       26.1241318784
  C        -8.8892348751        9.5938325137       25.5872420710
  S        -3.7616798308       13.9522858898       37.0131949873
  C        -3.1156154339       16.4837483131       37.7853830085
  H         1.8231053330        7.0684041084       11.4237862113
  H         2.6592456148        7.6391996580       10.0453161599
  H         2.3928518333        5.9498659406       10.2587546316
  H         8.0971627375        6.1347221923       31.3660010823
  H         6.4253488519        6.2427600228       32.1257650965
  H         7.3651860081        7.5750526217       31.9025690062
  H        -8.4783802149        8.6629158880       25.9889523367
  H        -8.7955170783        9.5184488536       24.4672815749
  H        -9.8837439702        9.7729107754       25.8618744430
  C        -4.2709193511       14.7160061267       38.4959090414
  N        -3.9121422705       15.9572535900       38.7278659012
  O        -2.5991653871       17.5753178509       37.8161339119
  S        -5.0603301020       14.0105638714       39.8372885882
  C        -4.1090823927       16.7174426866       39.9875577889
  H        -4.0995576533       17.7379187330       39.7434905669
  H        -5.1299817860       16.5844871865       40.3661668476
  C        -2.9112107219       16.4069491832       40.8954876614
  H        -3.1603824256       16.3148658794       41.9884488851
  H        -2.5414777803       15.4081582179       40.6903385144
  H        -2.0435958228       17.0377912214       40.6684303777
