352
 i =     4400, time =     4400.000, E =        34.2073939350
  H        12.3077070697        5.2266292837       32.3647840783
  C        11.2025803487        5.4248316513       32.4472469232
  H        10.6478762931        4.5053554958       32.5839198967
  C        10.3586122316        6.0085987348       31.2724888718
  C        11.1510759301        6.2719085035       33.6611674488
  C        10.6719511578        5.4471522553       29.8941924797
  H         9.3101219476        5.9399125919       31.4851774500
  H        10.4521304310        7.1632583017       31.1303337236
  H        11.5490985873        7.3306185784       33.5224023789
  H        10.1337814559        6.3857567501       33.9823509972
  H        11.5992519675        5.9153401118       34.5723695484
  C         9.6315523502        5.9018615861       28.8533474225
  H        10.7453809445        4.3485701978       29.9044696669
  H        11.6786321231        5.7626557093       29.5233798578
  C        10.1687138860        5.7884568651       27.3877669903
  H         8.6860520475        5.4137724926       28.9755907119
  H         9.2668486901        6.9325055237       29.0787197803
  C         9.1964894641        4.9632663313       26.4630402532
  H        11.1729719290        5.3069543989       27.4063187369
  H        10.3339775898        6.7581789820       26.8994303752
  C         7.8923829360        5.8049824835       26.2511170113
  H         9.7297275515        4.7049939425       25.4780002820
  H         8.9036577444        4.0332047715       26.9432136795
  C         6.7579828964        5.0400711197       25.6189027183
  H         7.2896957958        6.1500763729       27.1553279928
  H         8.1410648457        6.8157960740       25.7425842225
  C         6.5119466823        3.6472440517       26.3241638873
  C         7.2666233152        4.3467315674       24.3729984172
  C         5.4284199362        5.8370621981       25.3560124334
  C         6.9091913455        2.6176692174       25.5778035660
  C         6.0491294546        3.2039351150       27.5648087199
  C         7.3209993589        2.9401750108       24.3174273352
  C         7.7276834505        4.9988244881       23.2236509536
  H         5.7733085327        6.7204154294       24.7278509720
  H         5.0689093275        5.9560537272       26.3357496510
  C         4.3691242483        5.0855549842       24.5855449826
  S         6.5763630584        1.0848375451       26.2460585188
  C         6.0147213486        1.8571040821       27.6383367992
  H         5.7554965617        4.0152717255       28.2372672267
  C         7.8373765189        2.3326195703       23.2510346167
  H         7.7466062646        6.0963828426       23.1092197845
  C         8.1754372585        4.3450764602       22.1286444933
  H         4.8512052559        4.9136525560       23.6149954721
  H         4.1779507159        4.1802154945       25.0558177976
  C         2.9613642213        5.6860374305       24.3094538175
  C         5.6692641894        1.0880532040       28.8729047988
  C         8.1885592383        2.9718639320       22.0660563797
  H         7.9365218617        1.2138720385       23.1917580502
  C         8.6059275701        4.7892320325       20.8692220252
  H         2.3458512501        5.0680854732       23.6974214551
  H         3.0784534430        6.5168330752       23.4739546619
  C         2.2542672795        6.1164928819       25.5595951666
  C         5.7397113218       -0.3209200911       29.1149810853
  C         5.1557425805        1.8779102630       30.0331851089
  C         8.6917367236        2.3222957309       20.7994779737
  C         8.8898538318        3.6727689388       20.0940554377
  S         8.8649073752        6.2618956698       20.0792284664
  H         1.3942090377        6.6504929258       25.2050390295
  H         2.8181922714        6.7234617325       26.2808287124
  C         1.7544154381        4.9766632457       26.4099182627
  N         6.1749466476       -1.2514776420       28.2031594575
  C         5.5704765917       -0.8757405749       30.4403202784
  C         4.9241534830        1.3208590383       31.3429196845
  H         5.1113590761        2.9217028273       29.9207661170
  C         7.8516421283        1.2945464526       20.1099664349
  C        10.0732025577        1.5707388534       21.1194392745
  C         9.2816044729        3.9933541047       18.8213594607
  C         9.2970113959        5.3517025061       18.6240647806
  H         0.8064043752        4.5822534264       26.0657784579
  H         2.4437667969        4.1295083785       26.2823905428
  C         1.5520326517        5.1930521390       27.8954266007
  S         6.3101630360       -2.7127399721       28.9195218089
  N         5.6675802430       -2.2656721820       30.3717506090
  C         5.1794275380       -0.1387425842       31.5302004547
  H         4.5049824235        1.8931274209       32.0861718457
  H         8.1120502855        0.2633127434       20.6186921674
  H         8.3167424364        1.1788833618       19.1438399214
  C         6.3201894178        1.8375420434       19.9638276046
  H        10.3671700330        1.1300477401       20.1512295884
  H         9.9250639839        0.8539247600       21.8852038749
  C        11.1884597226        2.5234410931       21.5765075992
  H         9.3344528980        3.2035839863       18.0451801978
  C         9.4913821429        6.1183852194       17.3469936178
  H         0.8252935847        4.4700991615       28.2440715005
  H         1.0316532095        6.1764686084       27.8075020891
  C         2.7829999185        5.3146291881       28.8553109423
  C         4.9730430723       -0.8802990167       32.7677362366
  H         6.2638018355        2.8206337555       20.3378553458
  H         5.7115656759        1.0948376800       20.4659333293
  C         5.9391648732        1.9330680266       18.5093049185
  H        10.9784415345        3.0225744447       22.5328016845
  H        11.2621868667        3.2316192705       20.7462886350
  C        12.5491136231        1.7797156712       21.5814883784
  C         9.6347782609        7.5290945594       17.1601718270
  C         9.9602947635        5.2618275969       16.2098460370
  H         3.3275156478        4.3258993210       28.8668186335
  H         3.4383432310        5.9987435279       28.3755878398
  C         2.2219886634        5.6582993859       30.2539832215
  H         5.3430675332       -1.8374422339       32.6520261879
  C         4.6639965196       -0.4543474228       34.0449044012
  H         5.8954978639        0.8777322738       18.0822799871
  H         6.6785889094        2.4839147365       17.9803718882
  C         4.5962486636        2.6181152544       18.1504182686
  H        12.4185303586        1.0281358507       22.2375538165
  H        12.6744880530        1.3632936591       20.6307247419
  C        13.6291006663        2.8392846192       21.7738856877
  N         9.5325426143        8.4809716069       18.2039367938
  C        10.0752652564        8.0337064990       15.9508114527
  C        10.3042563698        5.8447708826       14.9475619857
  H         9.5486564078        4.1924974700       16.2418173872
  H         2.9883603449        5.7101841989       30.9142237705
  H         1.7051280420        6.6043694718       30.1942453114
  H         1.3520078857        5.1067928885       30.6072414107
  S         4.5180865684        1.2188336841       34.5652851863
  C         4.8134604410       -1.4081699408       35.1396573262
  H         4.5288631927        3.6071836452       18.5341304456
  H         4.5189755570        2.6090046748       17.0539218942
  C         3.4774335214        1.6825371348       18.6573802057
  H        13.3860056698        3.4105225861       22.7283886450
  H        13.4483012667        3.5281528863       20.9880713198
  C        15.0991782628        2.3972503606       21.8811202496
  S         9.6896649706        9.9334548626       17.5364873377
  N        10.1185881395        9.4383303112       15.9699105401
  C        10.3663504438        7.2965828942       14.7963621990
  H        10.4331680270        5.2808218777       14.0498036333
  C         4.6632887713        0.6461341438       36.1628509304
  N         4.6917285902       -0.7301765783       36.2995619100
  O         4.7249967128       -2.5884254655       34.9756702578
  H         2.5001230771        2.1707863284       18.6134775622
  H         3.5763242416        1.7141025383       19.6673927758
  C         3.4629069968        0.3099241862       18.0484432509
  H        14.9161274243        1.2919181409       21.6677007563
  H        15.7658428429        2.9078796877       21.0626073704
  C        15.7273784600        2.8188435126       23.2685281874
  C        10.6554098402        8.0236822814       13.5907283971
  S         3.9954683504        1.4626746512       37.5491251839
  C         4.9656628141       -1.3755755873       37.6179145206
  H         3.3475550883        0.2623122911       16.9891608452
  H         4.2966131429       -0.3199236801       18.2254065429
  C         2.2740007885       -0.5234815091       18.6820941340
  H        15.0447082130        2.7372220699       24.0984484154
  H        15.9823977649        3.8455507959       23.1558479659
  C        16.8197365005        1.8997326939       23.7280330327
  H        10.2622950830        9.0188062825       13.6370397147
  C        11.3110040622        7.7385457261       12.4130654920
  H         4.4514206450       -0.9117169979       38.4533476073
  H         4.4539957561       -2.3702871803       37.4878050646
  C         6.4253504564       -1.6000361661       37.7783109506
  H         1.6992661019        0.2077243552       19.1089834684
  H         2.8638332251       -1.2110961299       19.2978290459
  C         1.5167417554       -1.4188795451       17.7404376914
  H        17.3117917444        2.4178835021       24.5825127858
  H        16.3908091530        0.9568459932       23.9855358237
  C        17.8263157096        1.6739388452       22.6352017344
  S        11.9918286742        6.2978345597       11.9005409622
  C        11.4673051780        8.8787108731       11.3767150024
  H         7.0362014077       -0.7421044006       37.4692757107
  H         6.7805997138       -1.9412383703       38.7547782000
  H         6.8206060163       -2.3604486147       37.0515453821
  H         1.9813572775       -2.4085776009       17.7703403308
  H         1.4673158780       -0.9876384003       16.7613681279
  H         0.4733218875       -1.5630489367       18.0907181625
  H        18.1659404315        2.6487757568       22.2015380923
  H        17.5699773986        1.1853026714       21.7554078911
  H        18.6549967418        1.1588228653       23.2205700214
  C        12.6198806900        7.1933584176       10.6147964639
  N        12.1003084136        8.3851446808       10.3566402660
  O        11.0768567007       10.0397964713       11.4865689555
  S        13.4569457900        6.2282769713        9.3592918575
  C        12.3730426582        9.2920714254        9.1828909326
  H        12.3725095108       10.3538184625        9.4275165011
  H        13.3149482416        9.0172855021        8.6442863458
  C        11.3745033506        9.0649804212        8.0798590706
  H        10.8169988341        9.9888389965        8.0048473364
  H        11.7190245369        8.7804443624        7.0828519217
  H        10.7299655446        8.2412198576        8.4039756346
  H        -4.4188972555       13.2834847250       16.2099924104
  C        -3.3143853476       13.3927289775       16.4392228535
  H        -2.9140612340       12.4203936388       16.7970363061
  C        -2.9665911370       14.3676211570       17.5233981253
  C        -2.7652426060       13.7266907327       15.0068196416
  C        -3.4044477848       13.7643584077       18.8975221560
  H        -1.8923763171       14.6038482115       17.5677343109
  H        -3.5670349470       15.2656008072       17.3893059704
  H        -3.1596765625       14.6459726486       14.5776343200
  H        -1.7009895343       13.8054863401       15.1478798957
  H        -3.0026080236       12.8881997548       14.3364958890
  C        -2.1395045734       13.4976970666       19.7864377721
  H        -4.0591098007       12.8681453476       18.7704027681
  H        -4.1067703836       14.3158628163       19.4829527613
  C        -2.4682789007       13.5625038521       21.3060559805
  H        -1.8202634228       12.4946399208       19.5292576155
  H        -1.3409734109       14.1656646656       19.5917243835
  C        -1.3834100258       12.7609442473       22.1114278397
  H        -3.4391015703       13.0833452267       21.4646691138
  H        -2.4916461573       14.6206078145       21.6315645985
  C        -0.1577826169       13.6532989633       22.5853613096
  H        -1.7617189735       12.3381798611       22.9802696017
  H        -0.9994157456       11.9463948372       21.5001406048
  C         0.8944841905       12.9878075235       23.3803396890
  H         0.2941430735       14.1957972432       21.7348907746
  H        -0.5954369471       14.3928867663       23.1858851518
  C         1.2767330596       11.6059590463       22.7386904440
  C         0.4681657513       12.2126066413       24.5265220101
  C         2.2221762765       13.7874315575       23.4920150608
  C         0.9569422278       10.5005226878       23.4931710548
  C         1.8283000191       11.2175028097       21.5101512981
  C         0.3756138306       10.9049004330       24.6688604352
  C         0.0226410299       12.8960081497       25.6832411068
  H         2.3835149357       14.0821746800       22.5027316023
  H         2.0881343141       14.6973555353       24.0677959428
  C         3.4361438849       13.0538955226       24.1386232455
  S         1.2492564190        8.9505421618       22.6599788289
  C         1.9169429808        9.8815100810       21.3046655590
  H         2.0722835742       12.0435595033       20.9160550486
  C        -0.1258465792       10.2356616299       25.8457882245
  H         0.1389055492       13.8971681768       25.7435927909
  C        -0.4909064274       12.3653685321       26.8421944739
  H         3.8592890898       12.2143142436       23.6263626676
  H         3.0121324636       12.6189506101       25.0574992116
  C         4.6842138287       13.9703594346       24.3428888425
  C         2.3343383124        9.1565578860       20.0260440048
  C        -0.4590148115       11.0304163767       26.9925496947
  H        -0.1935775760        9.1877757821       25.7944864395
  C        -0.8267828784       12.7719853073       28.0944271843
  H         5.3809523417       13.7742233384       25.0814230180
  H         4.4714432760       15.0720249901       24.4705137184
  C         5.4434504270       14.0921152837       23.0463895833
  C         2.2632412042        7.7506348374       19.7882283173
  C         2.7543532643       10.0240648815       18.9126835722
  C        -0.8805643782       10.3348643635       28.2503757112
  C        -1.2054551810       11.6920699249       28.9142535603
  S        -0.9767101581       14.3159880263       28.9031957672
  H         6.2697257710       14.8036016108       23.2941771297
  H         4.8138423045       14.5913251128       22.3605767894
  C         6.0930544390       12.9005588485       22.4627121341
  N         2.1510341038        6.8063249984       20.8049079641
  C         2.4684429372        7.1596953344       18.5828595325
  C         3.1354740090        9.4021830934       17.6806050567
  H         2.8519776635       11.0964082249       19.0471736042
  C         0.2373353138        9.5873571986       29.0341852760
  C        -2.1603733002        9.4603361849       28.1121111184
  C        -1.5809540914       12.1118115552       30.1470201181
  C        -1.4672889067       13.4951140370       30.3872944942
  H         6.8788470812       12.4393492021       23.1002563026
  H         5.3836330587       12.0409339921       22.2696429590
  C         6.7928084794       13.2647347881       21.1051769401
  S         2.0696592592        5.3275168039       20.1353015764
  N         2.3183250351        5.7952071272       18.6445566116
  C         2.8394266199        7.9301650992       17.4440680011
  H         3.4785328209        9.9997428652       16.7689239679
  H         0.4898268119        8.7391084746       28.4186510205
  H        -0.3022438553        9.1959127734       29.9312640864
  C         1.4626230740       10.4747045269       29.3776989420
  H        -1.7725835484        8.6086770397       27.5851032656
  H        -2.3842814177        9.0369120942       29.0254976688
  C        -3.4491430510       10.0427725644       27.4999712861
  H        -1.8684584056       11.3812635802       30.9289190835
  C        -1.6346723748       14.2473757031       31.6909525861
  H         7.4718460209       12.4835852102       20.8120055212
  H         7.4274919478       14.0624756859       21.4158312318
  C         5.8579792238       13.4512213285       19.8974229165
  C         3.0304565708        7.2988136268       16.1362121065
  H         1.7213278373       11.0345674232       28.4231002575
  H         1.2024310409       11.3438644391       30.0151143450
  C         2.5741185289        9.6974918618       29.9160362806
  H        -3.1168869653       10.4727091843       26.5718347350
  H        -3.8507796695       10.9454034437       28.0111594063
  C        -4.4848630443        8.9772414791       27.1568225768
  C        -1.8315727530       15.6573511746       31.9278394433
  C        -1.9030238266       13.4801377493       32.9296593041
  H         5.4196184038       12.4479927127       19.8001870304
  H         5.1067223058       14.2172401105       20.2512586343
  C         6.5256627198       13.8427880116       18.6296274407
  H         2.8088127435        6.1610099527       16.0710325392
  C         3.4478602411        7.8510159946       14.9086503150
  H         2.7353802003        8.7102154955       29.5781886031
  H         2.3144791867        9.4412557906       30.9209481064
  C         3.8622732799       10.5040037590       30.1567825683
  H        -4.0258051232        8.1041089328       26.7747557788
  H        -4.8176193633        8.6316486796       28.1498590925
  C        -5.5772098690        9.5911459949       26.2076939050
  N        -1.5223847502       16.6051179564       30.9920320166
  C        -2.1163113433       16.2495309852       33.1058698113
  C        -2.2879724801       14.0387943279       34.1720350829
  H        -1.7125767990       12.4250447864       32.7730579528
  H         7.0118534826       12.9341447550       18.2544616945
  H         5.9795283777       14.2415061759       17.7625932262
  H         7.4984517256       14.3283036087       18.8979172774
  S         3.7349427813        9.4722562778       14.5152454070
  C         3.6058265004        6.9078638785       13.7699381938
  H         3.9226238418       11.1748669415       29.3346239959
  H         3.9048842525       11.0864418047       31.0703830669
  C         5.1596926167        9.6783972908       30.1471560165
  H        -5.8671683327        8.7405666860       25.6229932652
  H        -5.0554316864       10.2995002851       25.5762341353
  C        -6.6900480407       10.3388508736       26.8834560219
  S        -1.7348952471       18.1101448440       31.6907550736
  N        -2.2056911038       17.6488387234       33.1491767120
  C        -2.4005483281       15.5247750978       34.2915308818
  H        -2.5200477670       13.3506164130       34.9560553596
  C         4.1293207883        8.9148459641       12.8614597700
  N         3.9714058007        7.5879308441       12.6711252988
  O         3.1099137349        5.7597390879       13.7528757069
  H         6.0101189365       10.4258603277       30.3390572515
  H         5.2274240601        9.3227031985       29.1692310623
  C         5.2929637880        8.4530162419       31.1237527664
  H        -7.0178957056        9.7503402063       27.6916982458
  H        -6.3343940330       11.1610673880       27.4167801792
  C        -7.7979873971       10.9977545322       26.0200237145
  C        -2.8042054622       16.1534268980       35.4703939647
  S         4.6417208680        9.7588537280       11.4025187808
  C         3.9846059013        6.9134419948       11.3850472367
  H         5.7432313117        8.7753775143       32.0643307713
  H         4.2792163359        8.1525864481       31.2492976625
  C         6.1875709189        7.2776603048       30.5997773740
  H        -7.2196619326       11.2596579477       25.0938560082
  H        -8.3657916841       11.8613263578       26.4589353409
  C        -8.8087372363       10.0049954881       25.3580815045
  H        -2.7003267732       17.2361106860       35.5056514366
  C        -3.2881814135       15.6714385541       36.6918790345
  H         4.8935144608        7.2510106449       10.9720546775
  H         4.2131712911        5.8904430012       11.4426430233
  C         2.7425026020        7.2714966281       10.5355387258
  H         7.2162516313        7.7390594694       30.3363679237
  H         5.7395608731        6.8944535266       29.7198757202
  C         6.2378921736        6.0143442567       31.4743317547
  H        -9.1484203151       10.4098714272       24.4234316906
  H        -8.3427943598        8.9863997609       25.2559356052
  C       -10.0730700379        9.8451185155       26.2509102187
  S        -3.8769112386       14.0592251296       37.0502546207
  C        -3.5317574259       16.6705831863       37.8004184341
  H         2.2720636036        8.2167056758       10.8042902028
  H         3.0371168018        7.3088890242        9.4536579715
  H         1.9756310250        6.5653094472       10.5387028694
  H         5.2988903694        5.5140735094       31.6207732131
  H         6.5248391850        6.1657112715       32.5111878887
  H         6.9390729036        5.3851046760       30.9924859667
  H        -9.8636536250        9.1743190398       27.0665566337
  H       -10.7481168191        9.4269285470       25.6302713954
  H       -10.4970360756       10.8630521064       26.4110817393
  C        -4.2602039963       14.6927193457       38.7020167740
  N        -4.0842817997       15.9829378820       38.8201859307
  O        -3.3090626437       17.9347571273       37.6943001976
  S        -4.8516565969       13.6870796315       40.0303646475
  C        -4.3031938535       16.7563893487       39.9952024533
  H        -4.8724754810       17.6034493236       39.6921692564
  H        -4.8062904916       16.2727905766       40.7553954183
  C        -2.9683314378       17.1422077400       40.6319003008
  H        -2.1408472696       16.5416925063       40.4388120409
  H        -2.7070125209       18.1797240316       40.5082971851
  H        -3.0766781083       17.1494421546       41.7248033766
