352
 i =    29200, time =    29200.000, E =        24.6100232897
  H        10.9558591382        7.1040373681       32.6124328017
  C        11.3176064755        6.1341028462       32.3939621654
  H        12.3648957850        6.1893608801       32.1001418094
  C        10.4783036852        5.4627903343       31.2612264523
  C        11.4127227847        5.1701871543       33.6436282368
  C        10.7184407440        6.0691784472       29.8134516414
  H        10.5334922350        4.3569541557       31.1322609290
  H         9.4918606643        5.8345304337       31.6469732741
  H        11.6502718854        4.1536928985       33.4336373949
  H        12.1508450529        5.5134084056       34.3979681230
  H        10.5227914386        5.0606670490       34.2071681486
  C        10.3250718171        4.9917542739       28.6963383764
  H        11.7214339379        6.4236201975       29.6798544892
  H        10.1075301099        6.9257136063       29.6437173182
  C        10.5485617520        5.4036797289       27.2384062168
  H        10.8676752282        4.0743262885       28.7048240100
  H         9.2517691880        4.6902027210       28.8085245323
  C         9.5621089080        4.7249013370       26.2860249110
  H        11.5324044239        4.9863626895       27.0051665367
  H        10.7232573914        6.4186316444       26.9733466378
  C         8.2934708162        5.6210386028       26.1389570282
  H        10.0087581928        4.5089703569       25.2985181832
  H         9.3096109674        3.7788247824       26.7602081027
  C         7.1980581612        4.9930551243       25.2664611620
  H         7.9319154006        5.8163086871       27.1681341557
  H         8.6008950598        6.4874745739       25.5781292185
  C         6.8275334165        3.6683552583       25.8603509217
  C         7.6535690568        4.2171350212       24.0067994899
  C         5.9530505263        5.8707929991       24.9243554966
  C         7.1609055393        2.5496987743       25.1538251327
  C         6.2843754141        3.3604461280       27.1130761186
  C         7.5352598688        2.8991966184       23.8743780233
  C         8.2069964868        4.9192572551       22.9354884954
  H         6.1041444505        6.5534498778       24.0763061957
  H         5.7509124576        6.6049442811       25.7007479177
  C         4.6663448995        5.0572758678       24.5261106976
  S         6.7001910350        1.0960360347       25.8296386755
  C         6.1920111636        1.9857576850       27.2685418962
  H         6.0213004983        4.1364792096       27.8174663846
  C         7.9717417565        2.3227314778       22.7308419557
  H         8.2930741089        5.9727422016       23.0965932581
  C         8.5571142439        4.3884338966       21.7256184036
  H         4.8191818431        4.5173832496       23.5602623546
  H         4.4826233799        4.3986887606       25.2969074920
  C         3.4415136689        5.9220828277       24.2892975897
  C         5.7486569973        1.3451348639       28.5532269197
  C         8.5062561473        3.0479725681       21.6099115350
  H         8.0375451006        1.2382455019       22.6305029647
  C         9.0174032325        4.8119877280       20.4568901276
  H         2.7200376142        5.4772618058       23.7078844523
  H         3.7602749250        6.7277398446       23.7598649967
  C         2.9901282410        6.3421874906       25.6960057142
  C         5.8098493166       -0.0960460357       28.8245706625
  C         5.4077733145        2.1287620555       29.7375428706
  C         9.0370828693        2.3627133126       20.4031413873
  C         9.3098217408        3.6901997917       19.6523758162
  S         9.3762170620        6.2742816113       19.7467356362
  H         2.4731064947        7.3051749919       25.5168616419
  H         3.7828373314        6.5858645523       26.3375243734
  C         1.9978679758        5.2761878586       26.2011665799
  N         6.1420836605       -1.0785205514       27.8582511342
  C         5.5618107935       -0.5887411360       30.0918238921
  C         5.0988879052        1.6364896102       30.9962090702
  H         5.4237819618        3.1699518101       29.6412484005
  C         8.0254891723        1.6295485578       19.6001460284
  C        10.3468904011        1.5337963196       20.5961486428
  C         9.7668897083        4.1141819529       18.3407566036
  C         9.7816988675        5.4355753664       18.2626638058
  H         1.0986367568        5.2570216115       25.6311544061
  H         2.4440274826        4.3099376744       26.0794883871
  C         1.6063605560        5.3206120467       27.6747322489
  S         6.0524256452       -2.5362403418       28.6328908110
  N         5.7002829835       -1.9547907034       30.0997735380
  C         5.2470770062        0.1508398824       31.2374495142
  H         4.7649869604        2.2563930098       31.7759090059
  H         7.9127738519        0.7805904171       20.2244177885
  H         8.4912476888        1.2713500570       18.6469389397
  C         6.7173504351        2.3641373353       19.2539002534
  H        10.6806707734        1.0974750553       19.6784135550
  H        10.1406591860        0.7817632607       21.2937200309
  C        11.4875197988        2.3322493408       21.1683892737
  H         9.9350239549        3.3601316276       17.5950006824
  C         9.9453342329        6.2155233945       16.9406672542
  H         0.8467287286        4.6031101682       27.8535526421
  H         1.1607541928        6.2894086023       27.8469205763
  C         2.8083222336        5.0955122600       28.6028687031
  C         5.0166345650       -0.5675347700       32.4824439250
  H         6.8477714555        3.2594325057       18.7605524125
  H         6.2225317896        2.6360991516       20.1910604806
  C         5.7935485363        1.4494399353       18.3983218783
  H        11.1412695226        2.5926748221       22.2114169399
  H        11.7327941673        3.2836729891       20.6710093643
  C        12.8603563342        1.6129697809       21.0711278352
  C         9.9380851010        7.6602533125       16.9334946664
  C        10.1339858948        5.5395162158       15.6371994198
  H         3.2371799504        4.0122714357       28.6326427334
  H         3.6203451744        5.8004714556       28.3836655340
  C         2.3944761637        5.3606864928       30.0385360515
  H         5.2932625287       -1.5858623207       32.4069469128
  C         4.7165033412       -0.0782619623       33.7227834932
  H         5.5289770956        0.5467159736       19.0046262491
  H         6.2066620045        1.0682371189       17.4897427062
  C         4.5166299626        2.3010350770       18.0901413921
  H        12.8733263942        0.7864812848       21.7324395335
  H        12.8427996467        1.1858134299       20.0681336715
  C        14.0521235493        2.5552275596       21.3158171367
  N         9.7891491254        8.5776466994       18.0331208922
  C        10.2877624485        8.3485677896       15.7523013569
  C        10.4950947633        6.2125248084       14.4726374400
  H        10.0989677438        4.4786674689       15.5581838834
  H         3.1282545741        5.1973829655       30.7677816259
  H         2.1794773257        6.4548270493       30.1154707216
  H         1.3638437244        5.0210151597       30.2081488737
  S         4.3860390315        1.5235342502       34.1799417871
  C         4.8205980361       -1.1148604017       34.7934018765
  H         4.4447875916        3.1261867816       18.7904306819
  H         4.6305193377        2.6783767508       17.0920554761
  C         3.1647946908        1.5254321490       18.1699393709
  H        14.0186747494        3.3587617787       20.4976004988
  H        14.9439885854        1.9809458396       21.1885204587
  C        14.2012051076        3.2663042278       22.6260187174
  S         9.8883648031       10.1475986527       17.4729717502
  N        10.2847720492        9.7370321309       15.9440965918
  C        10.6642428436        7.7159870479       14.5097541373
  H        10.6516618776        5.6305032073       13.5618490397
  C         4.2406455183        0.8739210963       35.7973791661
  N         4.5076358490       -0.4669832781       35.9349307635
  O         5.1285672876       -2.2938935111       34.6276699681
  H         2.4754249696        2.1836378182       17.7931424377
  H         3.0154371963        1.3755323774       19.2460997763
  C         3.1769089503        0.2612775035       17.2660050350
  H        14.7627072801        4.1912180112       22.5213809877
  H        13.1962647323        3.4925010825       23.0162925549
  C        14.8156375677        2.4595183051       23.7422562752
  C        11.0670236697        8.5760280971       13.4341187192
  S         3.8078516715        1.8600825650       37.1680122964
  C         4.4578739560       -1.1770551650       37.2189530812
  H         2.5916443164        0.4082716766       16.3103842783
  H         4.2432669047        0.0473848707       17.1004746087
  C         2.6195991988       -0.9181858123       18.0495980061
  H        14.5353953148        1.4081993429       23.6755534316
  H        14.3275468318        2.6708626313       24.6944819257
  C        16.2958480757        2.7008183354       23.8877613986
  H        10.7770758885        9.6250206070       13.6365239557
  C        11.6356483817        8.2756550931       12.2207732124
  H         3.6360645507       -0.8677600325       37.8917378956
  H         4.3191885029       -2.2503989780       37.0181147291
  C         5.7338641188       -0.8909758760       37.9583474938
  H         3.1841202039       -1.0129991360       19.0312373290
  H         2.6763983693       -1.8421726155       17.5550851628
  C         1.2184445947       -0.7457611036       18.4136511466
  H        16.4302138402        3.7581937273       23.9902407928
  H        16.8033995428        2.2451855331       24.7534958795
  C        17.1696480720        2.1758243270       22.7563368565
  S        12.2174087109        6.6906313838       11.7693981649
  C        11.6105304791        9.2985405541       11.1701212958
  H         6.3927945019       -1.7677990027       37.6698065009
  H         6.1746648081        0.0460351302       37.8749055200
  H         5.5860775140       -1.1140470814       38.9850037164
  H         0.7021935184       -1.6394814880       18.6699852994
  H         0.7268251653       -0.3823493424       17.5039556665
  H         1.1117687306       -0.1906612926       19.3637391310
  H        16.9665622488        2.8196011376       21.9061318754
  H        16.9361372065        1.0996893410       22.5340619132
  H        18.2173052718        2.0389961459       23.0271731894
  C        12.5296972435        7.4725116810       10.2125595395
  N        12.1912302474        8.7401120408       10.0350708218
  O        11.0984542978       10.4032386498       11.3254741596
  S        13.0106589924        6.6088541279        8.7988416307
  C        12.4978083682        9.4916505430        8.8115059322
  H        12.4474784117       10.5009633793        9.1936698892
  H        13.4949064049        9.2914081028        8.3817229496
  C        11.3982173226        9.3198209386        7.7577656558
  H        10.8411186556       10.2784356655        7.6771082604
  H        11.7802439253        8.9248964483        6.8708062211
  H        10.7080733747        8.5751589217        8.1451180406
  H        -3.4687374607       14.5963773550       16.2678503036
  C        -3.2697257282       13.5006747609       16.4703230296
  H        -4.1167427985       13.0116990780       16.8942781643
  C        -2.0041983534       13.3109291806       17.4051635162
  C        -2.9710883502       12.8935856498       15.1225878357
  C        -2.1657264053       14.0115228836       18.8175989513
  H        -1.7150019716       12.2609484768       17.5184197951
  H        -1.1884028690       13.8416055700       17.0108082465
  H        -2.0985252374       12.1943033800       15.2774632755
  H        -3.7643024852       12.2370061188       14.8497558936
  H        -2.7258312680       13.5572933047       14.3124514430
  C        -2.0698209711       12.9103447943       19.8768686004
  H        -3.1135475136       14.4555249276       18.8354582450
  H        -1.4133830946       14.7353017109       18.9726635545
  C        -2.4354552025       13.2418613231       21.3166767228
  H        -2.5973051225       12.1408635538       19.3490578449
  H        -1.0257638685       12.7301183532       19.8686743570
  C        -1.4147905979       12.8204712286       22.3074770395
  H        -3.4005015978       12.6550143162       21.5511871453
  H        -2.5262918728       14.2895674421       21.4294918460
  C        -0.2668940003       13.7660276199       22.4506269984
  H        -1.8685462119       12.6164189138       23.2774306837
  H        -1.0503199942       11.8084097735       22.0974326502
  C         0.9481776759       12.9906622937       23.2623274976
  H         0.1479406344       14.1296351614       21.5207699970
  H        -0.6935507335       14.5991302110       23.0604031271
  C         1.2619488122       11.6849191932       22.5687026936
  C         0.5975911196       12.2038411301       24.5546433951
  C         2.2263402314       13.8894591756       23.4628736437
  C         1.1690782254       10.5375543408       23.3923729235
  C         1.7830389430       11.3359341753       21.2910657578
  C         0.8061195597       10.8779397988       24.6480416178
  C         0.1370364939       12.7954155804       25.7343232364
  H         2.5568442395       14.4959829426       22.6368236813
  H         1.8579978953       14.5373936481       24.2544885084
  C         3.4921284652       13.0441197841       23.8512391161
  S         1.4780967454        9.0686188476       22.5861935918
  C         2.0109112294        9.9564227700       21.1257880434
  H         1.8848384551       12.1407509309       20.5686578148
  C         0.5258500035       10.2563410909       25.8534765362
  H         0.1124225882       13.8637938196       25.6774513812
  C        -0.2014699744       12.1789229059       26.8777521403
  H         3.6163678563       12.2601129227       23.1039206762
  H         3.3544435455       12.4906017866       24.7395034781
  C         4.7680360877       13.8777547562       24.0105177051
  C         2.4660489979        9.2643002870       19.8885903291
  C         0.0183898639       10.8702997669       27.0097612964
  H         0.6628170384        9.2240118265       25.8289017622
  C        -0.6578494953       12.5581200054       28.1044283505
  H         5.5354682921       13.1497879021       24.3818902676
  H         4.7740719278       14.8216609416       24.5379365833
  C         5.4250657237       14.1669623056       22.6019710899
  C         2.5443841272        7.8835144232       19.6424271706
  C         2.8238043523       10.0885616991       18.7786187198
  C        -0.3712075934       10.0911914708       28.2177312894
  C        -0.7469938524       11.4207836467       28.9201698287
  S        -0.9299593370       14.0110779016       28.9967570233
  H         6.2916980204       14.7398565682       22.7163184554
  H         4.6997346308       14.7484860577       22.0626327763
  C         5.7371367345       12.8884461143       21.8757374987
  N         2.1992778685        6.8631558270       20.5344805024
  C         2.9005803741        7.3540190329       18.4246620283
  C         3.0571373895        9.5774103178       17.5190329862
  H         2.6614089974       11.1639753247       18.7836642978
  C         0.7795322315        9.3558869128       28.9399257657
  C        -1.5911577127        9.2840828385       27.9395334057
  C        -1.2653940107       11.7685327945       30.1898807045
  C        -1.3788322829       13.1105469031       30.4507391346
  H         5.8735958699       12.0612674858       22.4879069487
  H         4.9109819866       12.6753179943       21.2342842416
  C         7.0254660292       12.8923688930       21.0363752251
  S         2.3497800582        5.4181180276       19.8560153492
  N         2.8207872158        5.9299223629       18.3883491233
  C         3.1282444997        8.1311318453       17.2528851758
  H         3.2357172358       10.2276193527       16.6200101361
  H         1.3595106587        8.6709281643       28.2848547385
  H         0.3065594478        8.8993326401       29.7770492165
  C         1.8387326274       10.2848823109       29.5139316758
  H        -1.3435962011        8.6918940943       27.0454288918
  H        -1.7223908876        8.4528415357       28.6180708886
  C        -2.8850560912       10.1169108947       27.7318206868
  H        -1.5875773901       10.9766492732       30.9223300657
  C        -1.7608291505       13.9200828898       31.6728284731
  H         7.1936420517       11.8706349415       20.6768538436
  H         7.8293357154       13.1668224328       21.7198010024
  C         6.8838435535       13.8860684050       19.8810952940
  C         3.2615908673        7.5020908552       15.9537660674
  H         2.2317567138       11.0742287384       28.8184123261
  H         1.3477117442       10.7979933450       30.3444369788
  C         3.0574049086        9.4851193650       30.1346791484
  H        -2.8352005583       10.7357598508       26.8682767019
  H        -3.2255614956       10.7032232508       28.5872782071
  C        -4.0305435015        9.0672662068       27.5880549955
  C        -1.8066900027       15.3157405321       31.8185941606
  C        -2.0751233911       13.1658740713       32.9074569297
  H         6.3084840730       14.7347544773       20.1659019634
  H         7.8679655528       14.2581935561       19.6132172645
  C         6.3348374427       13.4110432218       18.6175591138
  H         3.0288084837        6.4717938072       15.9266981233
  C         3.5929344722        7.9274813160       14.6678689791
  H         3.6178650071        8.9214031030       29.3604248558
  H         2.5814849307        8.8251004797       30.8599396434
  C         3.8794846643       10.5832328085       30.7908129405
  H        -3.6366975935        8.4467719537       26.8077208160
  H        -4.2521910255        8.4688017992       28.4773500089
  C        -5.3556818995        9.7608483876       27.1895411828
  N        -1.5817129154       16.1947096960       30.7463601619
  C        -2.1265344890       15.9924647237       33.0546270932
  C        -2.4615405212       13.7758567845       34.0522326198
  H        -2.0817338794       12.1363160954       32.9535726012
  H         6.7831586375       12.5458434106       18.0920636486
  H         5.2141226242       13.3637476767       18.7168064204
  H         6.4244378632       14.2014010838       17.9369020145
  S         3.9589236007        9.5330390200       14.2287468189
  C         3.7147916141        6.8706183017       13.6223332766
  H         3.9397657685       11.4937780379       30.2815978657
  H         3.5464014414       10.7399701312       31.8161653842
  C         5.3109214625       10.1659615574       30.9519407652
  H        -5.3077527141       10.8229257902       27.4809408883
  H        -6.1106913638        9.3317555712       27.8725164439
  C        -5.6803564020        9.7813994485       25.7587867244
  S        -1.4968422856       17.6789351155       31.4469536863
  N        -2.1054509623       17.3933466789       32.8920749620
  C        -2.4876763671       15.2896395897       34.2428136445
  H        -2.8545662902       13.2151371730       34.8414170198
  C         4.2092519686        8.8623018277       12.5505121762
  N         4.0951924370        7.5290131322       12.4930354149
  O         3.5663923127        5.6484807233       13.7139537746
  H         5.9105205377       10.8566359775       31.5344172062
  H         5.7135006231       10.1346226696       29.8966851633
  C         5.5330601314        8.7957240597       31.5997032934
  H        -5.0143201215       10.4614654976       25.3849041319
  H        -5.4981139756        8.8131999013       25.2742145438
  C        -7.1266110367       10.3293466356       25.4798082579
  C        -2.6776190292       15.9818739660       35.4898413651
  S         4.4390343386        9.8400851503       11.1130440929
  C         4.1808977073        6.8609325941       11.2261671922
  H         6.3462708729        8.9844347250       32.2498522703
  H         4.7373983248        8.5110574109       32.2692199390
  C         5.8723509098        7.6963498619       30.5800371743
  H        -7.3857149147       10.2370135433       24.4048316318
  H        -7.1700774769       11.4046472855       25.7612378766
  C        -8.2056990385        9.5806973279       26.2717785428
  H        -2.3205451332       16.9453706746       35.5121265966
  C        -3.2831715720       15.5802746159       36.6548508567
  H         4.9405638235        7.2064642359       10.5800493944
  H         4.3550275809        5.8054862138       11.3380818081
  C         2.9494264878        7.0326650342       10.4274133288
  H         6.8498229764        7.9426226156       30.1206118053
  H         5.0594639220        7.5636233261       29.9143464135
  C         6.1142341821        6.4451480905       31.3564079121
  H        -8.0484216002        8.5131483191       26.3078870473
  H        -8.2375404410        9.9519039765       27.3227514126
  C        -9.6155874141        9.9792363225       25.7640574315
  S        -4.0405485279       14.0658657895       37.0244706535
  C        -3.2625894322       16.6648126248       37.7802428717
  H         3.1991106081        7.5689048618        9.5239097375
  H         2.4801446398        6.0789234538       10.1000143609
  H         2.2105179252        7.6848375990       10.9074182729
  H         5.1280388533        6.1309308433       31.7840798089
  H         6.7578638733        6.6640917946       32.1902927227
  H         6.4819079063        5.6159869561       30.6973759651
  H       -10.2656246661        9.1639527765       25.9712335381
  H        -9.5925842632       10.2771525612       24.6936169584
  H        -9.8763717817       10.8313456874       26.3091566129
  C        -4.3731588644       14.8097503340       38.5455322015
  N        -4.0174277279       16.0695464030       38.7478185502
  O        -2.8619355271       17.8427647306       37.6128777440
  S        -5.1107819309       13.9111954717       39.8602100952
  C        -4.3202953643       16.7440004973       39.9860524617
  H        -4.2737594694       17.7326460632       39.6116867839
  H        -5.3223483485       16.5807610360       40.4010206530
  C        -3.1935761777       16.5844614667       40.9799766190
  H        -2.3217202332       16.0517853918       40.5904306400
  H        -2.9044460790       17.6156439068       41.2577904712
  H        -3.4555719871       15.8573111833       41.7866373743
