352
 i =    38700, time =    38700.000, E =        24.8089255453
  H        12.0710665761        6.7476651237       32.0538004415
  C        11.9532414028        5.7098051860       32.1156576483
  H        12.7258785066        5.1463168879       31.7829356248
  C        10.7652731877        5.4624738944       31.1660169918
  C        11.5528636289        5.2019290112       33.5364552044
  C        10.9082302189        6.0025028017       29.7022341493
  H        10.4986432107        4.3377213371       31.1346154981
  H         9.9637364121        5.9597229728       31.6486415585
  H        11.2402000667        4.1537850555       33.5411020029
  H        12.4165867075        5.3270421496       34.1712149637
  H        10.7019086325        5.7781240911       33.8861544088
  C        10.1376561019        5.1774210269       28.6044935966
  H        11.9538309962        6.2220014115       29.3421391905
  H        10.3581864899        6.9723082548       29.8084073287
  C        10.7615662220        5.3467305378       27.2106857831
  H        10.0496119243        4.1508443517       28.9274019381
  H         9.1314518751        5.5115865434       28.6893180364
  C         9.7504033604        4.7705267791       26.1983569628
  H        11.7482742919        4.9641666366       27.1131087094
  H        10.8947988217        6.3427436663       27.0451400188
  C         8.5540937837        5.6774864743       25.8792262481
  H        10.3344128812        4.5265353995       25.2722253431
  H         9.4420697014        3.7595720951       26.5772469995
  C         7.3555370117        5.0759783959       25.1960292280
  H         8.2418336462        6.1848514658       26.8887081060
  H         8.8374192349        6.4227683257       25.2602469864
  C         6.9720831831        3.7263052830       25.8203846329
  C         7.9027422588        4.3515559090       24.0216141939
  C         6.1259218513        5.9451135441       24.8717460571
  C         7.3460481126        2.6184077437       25.0472922814
  C         6.4073594393        3.3301880176       27.0108110453
  C         7.8541614873        2.9954477976       23.8851952508
  C         8.3812265965        4.9982791217       22.9169599593
  H         6.3676093823        6.6397813498       24.0997590113
  H         5.8983974752        6.5279589159       25.7303709585
  C         4.8826286427        5.2257594533       24.3619470727
  S         6.8951494337        1.1646729288       25.7634169886
  C         6.3023147740        2.0328915934       27.1490646379
  H         6.1474434320        4.1483366544       27.7261731125
  C         8.2015967619        2.3756829617       22.7272994077
  H         8.4375260106        6.0835777430       22.8966552373
  C         8.6293546821        4.4380815207       21.6877914680
  H         5.0464577354        4.6934839992       23.4157206931
  H         4.6699661326        4.4592574066       25.0705181014
  C         3.6764578546        6.1233993444       24.1932629464
  C         5.8149929621        1.3363900704       28.3612479165
  C         8.5655998784        3.0819884746       21.5683030225
  H         8.1561585929        1.2853185497       22.5911181220
  C         8.9944215223        4.8696536938       20.5048374631
  H         2.9818859651        5.7354174070       23.3963753846
  H         3.9789175711        7.0438031169       23.7720601547
  C         2.8642529782        6.2437010905       25.4890411338
  C         5.8049520058       -0.0366351733       28.6381405495
  C         5.4990813537        2.2040514668       29.5193564359
  C         8.9279724364        2.3899230718       20.2804131097
  C         9.2113870464        3.7925896675       19.6246006792
  S         9.3375086871        6.4098844303       19.7680902252
  H         2.0269661021        6.8951161501       25.2279200171
  H         3.5016418587        6.6435735263       26.3149594096
  C         2.1517410950        4.9888095783       26.0289058708
  N         6.1366739961       -1.0195488799       27.7007685721
  C         5.6001246436       -0.5748072442       29.9309048531
  C         5.1604868262        1.6099587940       30.7279308392
  H         5.3005095302        3.2889474088       29.4308342321
  C         7.8586318011        1.5711904515       19.5484714670
  C        10.2891978259        1.6206654882       20.4941619958
  C         9.5730139721        4.2150442799       18.3452013405
  C         9.6909074860        5.6035409913       18.2366501049
  H         1.2361670132        4.8312294297       25.3676611050
  H         2.7940340555        4.1807908573       25.9426190557
  C         1.8011120855        5.0338348915       27.4416122637
  S         6.1281022033       -2.4757981321       28.4442427768
  N         5.8388217792       -1.9804378233       29.9158149737
  C         5.2700145104        0.1668267026       31.0331445610
  H         4.8135062241        2.2559400840       31.5423370207
  H         7.5136034768        0.7029128067       20.0131007931
  H         8.3143605223        1.4329849913       18.6259332185
  C         6.5940167897        2.3783053660       19.1585965200
  H        10.4732893190        1.0575279115       19.5733661214
  H        10.0841453961        0.9115551481       21.2862638128
  C        11.4784749273        2.4509125091       21.0191715824
  H         9.8366732399        3.4357034220       17.6152986745
  C        10.0082104616        6.3538304251       16.9611168642
  H         1.0280394416        4.2270285940       27.5577211685
  H         1.2275750225        5.9019173877       27.6620731323
  C         2.8414773541        4.8010949736       28.5014806532
  C         4.9935692437       -0.5685637271       32.2378951676
  H         6.8302094402        3.1881937320       18.3644490635
  H         6.2870539694        2.9973452933       19.9923761060
  C         5.4544690681        1.4254260143       18.8079720741
  H        11.2801930420        2.8566609338       22.0361602465
  H        11.5777979128        3.4148860136       20.4446719790
  C        12.7859610924        1.5590040239       21.1523043387
  C        10.0568458102        7.7968172769       16.8608760105
  C        10.1496434637        5.5445328040       15.7022117801
  H         3.0731593477        3.7041655752       28.4974956481
  H         3.7347319063        5.3932206948       28.2544343870
  C         2.2914226152        5.0332170220       29.9207482904
  H         5.3930254136       -1.5730803803       32.2718124552
  C         4.6356134933       -0.1066336308       33.5205568727
  H         5.0755655081        0.9565857029       19.7728796806
  H         5.9214277833        0.6041145222       18.2666198848
  C         4.3496488831        2.1544830694       17.9935784581
  H        12.7100385804        0.8545697861       21.9728287054
  H        12.8071507689        0.9407921424       20.3271094474
  C        14.1176595922        2.3875425950       21.2701609953
  N         9.9505800896        8.7626338525       17.8394326200
  C        10.4392888386        8.3898340190       15.6507505774
  C        10.3867248213        6.1724777042       14.4623868205
  H         9.9625077181        4.4720890562       15.6630920529
  H         1.9315079416        6.0402577407       29.8098717186
  H         1.4146795836        4.4948950197       30.2672439894
  H         3.0320767295        4.8961591504       30.7588773686
  S         4.4903060273        1.5060105442       34.1277787556
  C         4.5444492914       -1.1231897592       34.5599318112
  H         4.5019631570        3.2408927195       18.1100400693
  H         4.6608248361        2.0767731421       16.9794493866
  C         2.8514365984        1.7784941817       18.2542025022
  H        14.2249820305        3.0668707417       20.3357538745
  H        15.0089921452        1.7294184670       21.1279035017
  C        14.3266945869        3.1996663001       22.4606111681
  S        10.1039501604       10.2371030852       17.2442711289
  N        10.4784927014        9.8286815599       15.7567124643
  C        10.5165389812        7.7004753570       14.4230510851
  H        10.3428772703        5.6045049283       13.5361264230
  C         4.2289588785        0.7789656798       35.7368708190
  N         4.1902441386       -0.5506707416       35.7483614964
  O         4.6284467038       -2.3125836683       34.3559954923
  H         2.1953705549        2.3772932591       17.5495605496
  H         2.6234702851        2.1905667007       19.2126699109
  C         2.5241691479        0.3069857228       18.3526979727
  H        14.9125729087        4.0775372263       22.2452601631
  H        13.2723107646        3.5625010568       22.7238129649
  C        14.6886037617        2.3566420144       23.7282395641
  C        10.7939032850        8.4830726285       13.2393229575
  S         3.6730591470        1.5706855707       37.2119992640
  C         4.1485302795       -1.3748565252       36.9137907176
  H         2.8684214437       -0.0781797618       19.2944248509
  H         1.4071954346        0.2996048696       18.3052930726
  C         2.8879374403       -0.4851487241       17.1359208001
  H        14.3020451843        1.3293824840       23.7516854352
  H        14.1976861614        2.8445178723       24.5851083723
  C        16.2105678283        2.0765736486       24.0054185757
  H        10.5542583334        9.5073326488       13.3769332397
  C        11.3965816621        8.1318114152       12.1232574780
  H         3.3971290477       -1.0765402202       37.6435863792
  H         3.8024257156       -2.4493319281       36.7048476411
  C         5.4973389889       -1.4584724741       37.6491138139
  H         3.8535591629       -0.8295646601       17.1458844354
  H         2.7382759294        0.2331313470       16.3176013661
  C         1.9219997882       -1.6164269958       16.9339879305
  H        16.5240663168        2.8066060404       24.7388618445
  H        16.2630254211        1.1589797600       24.5941422984
  C        17.1802790710        1.9930256375       22.8885330938
  S        12.0864289656        6.5735652160       11.7050366725
  C        11.5466848887        9.1740669756       11.0384521422
  H         5.5809949967       -2.4188647752       38.1276219469
  H         6.2643917854       -1.2746033966       36.8505234175
  H         5.4746629700       -0.7389970913       38.5041560276
  H         1.5007848629       -1.8539237440       17.8950085134
  H         2.4549228537       -2.4574263516       16.5816556827
  H         1.0857622706       -1.5192290430       16.3120035853
  H        18.2261716204        1.8968755337       23.2033607793
  H        17.1965561595        2.8518699783       22.3222407240
  H        16.8793723590        1.1369382552       22.2318345585
  C        12.5708067460        7.4122365957       10.1648287900
  N        12.1661221236        8.6670137063        9.9900369481
  O        10.8997242536       10.2381972794       11.1271588058
  S        13.0983079949        6.5338782356        8.6497625643
  C        12.1715773968        9.3744451008        8.7193411522
  H        12.3660201477       10.3981728250        8.9785959632
  H        12.9750221444        9.1524194820        7.9851547510
  C        10.7615162669        9.3453020623        8.1102006422
  H        10.0823169788       10.0293481536        8.6070114364
  H        10.8023343119        9.6410280913        7.0033214934
  H        10.4012941659        8.3567262760        8.1411732290
  H        -3.6001477625       14.8890596777       16.2464851104
  C        -3.3385371013       13.8432884499       16.2051694340
  H        -4.2365698967       13.2830498103       16.3721599475
  C        -2.3459691646       13.6895854245       17.3738270238
  C        -2.6599185989       13.3923678148       14.8770670185
  C        -3.0229079679       13.7416368400       18.6781425417
  H        -1.9605147603       12.6322637406       17.3426739365
  H        -1.5213313877       14.3772698277       17.3061706745
  H        -3.4241225059       13.3668510536       14.1453471969
  H        -1.8399676233       13.9972206072       14.6076136785
  H        -2.3496841901       12.3503025427       14.7465591567
  C        -1.9446501748       13.7166086052       19.8091981841
  H        -3.6016457052       12.8174115543       18.7470732038
  H        -3.7701108374       14.5170230614       18.8012855950
  C        -2.3765724974       13.3644183044       21.2011902628
  H        -1.2357098755       12.9488759261       19.4992675757
  H        -1.3894261916       14.6284204158       19.8505982824
  C        -1.2739215513       12.7330601845       22.1368716875
  H        -3.2264596941       12.6774248960       21.2586136524
  H        -2.7523047366       14.3066682024       21.6092312923
  C        -0.0419492883       13.5303102323       22.3816745447
  H        -1.7750309668       12.3634762026       23.0303032002
  H        -0.9963000639       11.7128111578       21.6681571881
  C         0.9867706987       12.7339905596       23.1552735564
  H         0.3621976798       13.9942296053       21.4494530684
  H        -0.3324904874       14.3909858120       22.9748001625
  C         1.3288101266       11.4148872251       22.4294795936
  C         0.5405231056       11.9785292390       24.3254274158
  C         2.2003453610       13.6822032547       23.4442002049
  C         1.1462446226       10.3178607573       23.2217559967
  C         1.8832813879       11.0341529689       21.1735430838
  C         0.5806389913       10.6357093608       24.4306175935
  C         0.0813883192       12.5973562779       25.4699828571
  H         2.3177920187       14.1366590343       22.5389250347
  H         1.8914940839       14.5269685963       24.1270254313
  C         3.4875337223       12.9727516622       23.9054236931
  S         1.4571433784        8.8112324120       22.4363336891
  C         2.0808871217        9.7077093084       21.0425967177
  H         2.0989906555       11.7367719749       20.4784850059
  C         0.2268558083        9.9824168547       25.5773855569
  H         0.0079456214       13.6908685018       25.3997461994
  C        -0.1995534040       11.9735311168       26.6407899704
  H         3.7918439845       12.2022781227       23.2021508412
  H         3.3622727201       12.4213868646       24.8223123065
  C         4.6067797817       13.9559376507       24.0669178284
  C         2.6011957037        9.0301761178       19.7988078988
  C        -0.2176180715       10.6241722785       26.7332311620
  H         0.1672254338        8.8994874065       25.6090600246
  C        -0.5959956499       12.3341714830       27.8792385947
  H         5.0774752789       13.6313879161       24.9295108371
  H         4.1902858874       14.9329213949       24.3379020367
  C         5.5117577216       14.0730136613       22.8215684011
  C         2.6612594651        7.6434565493       19.4793738949
  C         2.9852622558        9.8924831168       18.6615354480
  C        -0.6615329044        9.9231425013       27.9998735846
  C        -0.8343471980       11.2702112447       28.6851234855
  S        -0.8869335912       13.8763813957       28.6176042199
  H         6.2473403044       14.8596613480       22.9985878829
  H         4.8271702115       14.4553019610       22.0888683385
  C         6.0746351169       12.7944770649       22.1960144628
  N         2.2682750306        6.6647921197       20.3750059286
  C         3.0392596348        7.1195782837       18.2666470508
  C         3.3118778882        9.3579865006       17.4205210287
  H         2.9900240526       10.9632898749       18.6731001861
  C         0.4727653419        9.0818569774       28.6185262941
  C        -1.9249194250        9.1628828661       27.8408593533
  C        -1.1302728337       11.6118062913       29.9678060022
  C        -1.3124870132       12.9854404347       30.0818710458
  H         6.7520923929       12.2202893158       22.9075903687
  H         5.2493018396       12.1648523704       21.9942815971
  C         6.9629742972       12.9670055238       20.9580294710
  S         2.4313138890        5.2106794004       19.6930576280
  N         3.0181329506        5.6789306761       18.2778686244
  C         3.3934284165        7.8514512629       17.1546429051
  H         3.6123871071        9.9449984118       16.6334628506
  H         0.8851347611        8.3327248018       27.9126679938
  H         0.0964761402        8.4730750474       29.5095769539
  C         1.7238754911        9.8773632786       28.9962861979
  H        -1.7255425959        8.2345682457       27.3109602130
  H        -2.1819772308        8.8604837579       28.8974919857
  C        -3.0383527108        9.9958126141       27.1824326985
  H        -1.2501808875       10.8886285240       30.6796056954
  C        -1.6644242874       13.7770463794       31.3215424842
  H         7.2499095102       11.9237079961       20.7136666450
  H         7.8649636705       13.5162588919       21.2828071284
  C         6.3089574653       13.6491695991       19.7277697207
  C         3.5453986335        7.2734337624       15.8692318849
  H         2.1329265596       10.3626575881       28.1267536125
  H         1.5448562033       10.6697278822       29.7013647485
  C         2.7496881789        8.8518916399       29.5249687736
  H        -2.8046294712       10.6434250343       26.3475897996
  H        -3.4651282982       10.6723073495       27.9315789381
  C        -4.2811160175        9.1423552047       26.7786806402
  C        -1.6427069120       15.1768674298       31.4788973600
  C        -1.9201607837       13.0358573810       32.5061143946
  H         6.2137829722       14.7019943812       20.0600787195
  H         7.0269082769       13.6646765292       18.8598957720
  C         5.0558156830       12.8947223437       19.3481720981
  H         3.4489626919        6.1915600520       15.8757633109
  C         3.7675116843        7.7319747910       14.5829900821
  H         2.8612196036        8.2041449944       28.6142201543
  H         2.3985069085        8.1414736995       30.2646834750
  C         3.9891073146        9.6430257532       29.9160650797
  H        -4.0436003552        8.4182485650       26.0264578081
  H        -4.6739569013        8.6764324417       27.6686207730
  C        -5.4686464983       10.0340097687       26.3264470599
  N        -1.3956312803       16.0778569449       30.4691806600
  C        -1.8231025892       15.8371246999       32.6890511223
  C        -2.3000567651       13.7160386107       33.6778441625
  H        -2.0701575576       11.9713709615       32.4588383425
  H         4.9946782962       12.8960777555       18.2163942956
  H         5.1593564329       11.8263431640       19.5954558683
  H         4.0856388798       13.2807744349       19.7264124321
  S         3.9740594843        9.3731232915       14.0801608932
  C         3.7751111395        6.7687205270       13.5154285393
  H         3.9772788607       10.5560522138       29.3642351590
  H         3.9802303658       10.0985118165       30.9108681559
  C         5.2354476881        8.7973789930       29.8164139054
  H        -5.3475364635       10.6745071520       25.4162338297
  H        -5.6528549350       10.8551779582       27.0785106114
  C        -6.6291544333        9.1341732560       25.8271794259
  S        -1.4485115846       17.5995097574       31.0483512347
  N        -1.8867557088       17.2190022138       32.5934278589
  C        -2.0931450526       15.1188573197       33.8373354861
  H        -2.5876973189       13.0873446464       34.5429577352
  C         4.1925020724        8.6769340714       12.4913143483
  N         4.1262818411        7.3565767091       12.3480354174
  O         3.7255991339        5.5380049973       13.7545857301
  H         6.0970109844        9.5015487025       29.7575050178
  H         5.2848810693        8.3169430003       28.8162808593
  C         5.5049210854        7.8188796546       31.0201762301
  H        -6.3562378246        8.3238446379       25.1680576569
  H        -6.9364666553        8.6551336483       26.7671611681
  C        -7.8099470367       10.0239296384       25.2847692929
  C        -2.3781281011       15.8031829056       35.0312227668
  S         4.7104128759        9.6216635579       11.0866824033
  C         4.2347223929        6.6909464999       11.0655441175
  H         5.8371683726        8.3887810366       31.8998847182
  H         4.5798690441        7.3072662017       31.4306155393
  C         6.5785096694        6.7898684858       30.5922067773
  H        -7.7678121104       10.2889530613       24.2222149486
  H        -7.7658624344       11.0232204699       25.8277240954
  C        -9.1558253476        9.3882975633       25.4933299550
  H        -2.1853171859       16.8328731862       35.0059623836
  C        -2.9406608465       15.4703893999       36.2315875786
  H         4.9750870788        7.1766341459       10.4194481827
  H         4.5964924426        5.7302379792       11.3469845609
  C         2.9082951529        6.6055602971       10.3435112131
  H         7.5058538263        7.3654107229       30.4230428937
  H         6.3031077725        6.1890992750       29.7486438168
  C         7.0330265143        5.7191901080       31.6068216189
  H        -9.9626934840       10.0295282369       25.0318239071
  H        -9.0671699277        8.3711481771       25.0506463667
  C        -9.5409048038        9.2043050539       26.9958571698
  S        -3.7634660442       13.9572194135       36.6161485494
  C        -3.2635593251       16.5796406259       37.2163872067
  H         2.4402651039        7.5249836116       10.0305568104
  H         2.9224964879        5.9104404301        9.4691501744
  H         2.0619640978        6.2091029498       10.9235171014
  H         7.2049480743        6.0734167889       32.6763582720
  H         7.9596076984        5.2481964570       31.3168657661
  H         6.2677755424        5.0098797177       31.6973826222
  H        -9.2974727882        9.9992091143       27.7046999068
  H        -9.2027296782        8.2749831021       27.4274818001
  H       -10.6408253906        9.0793442101       27.1066132047
  C        -4.1343428051       14.7609241148       38.2431014285
  N        -3.9380470954       16.1041298381       38.2714448947
  O        -3.0244912109       17.7875405624       36.9317149697
  S        -5.2804474755       14.0581084559       39.4568769645
  C        -4.1590340436       16.9424208278       39.4321601878
  H        -4.4800562369       17.9010747337       39.0266569273
  H        -4.9678192627       16.6107129587       40.0372497391
  C        -2.9672811155       17.0928268680       40.2976687509
  H        -2.1637570208       17.6457376747       39.8350282671
  H        -3.2596146426       17.8233878086       41.1078422229
  H        -2.4597198528       16.2262410572       40.8359308752
