352
 i =    71000, time =    71000.000, E =        24.7865931313
  H        12.6635164221        4.9917973138       32.1960696132
  C        11.6236575649        5.3445789592       32.2869699983
  H        10.9995484216        4.5671952691       32.0098703312
  C        11.3213663943        6.5426130386       31.3629680748
  C        11.2975629640        5.6225358832       33.7715894608
  C        11.8639935166        6.2154589436       29.9739792711
  H        10.2308627118        6.7341886425       31.3279251108
  H        11.9166575621        7.4072800117       31.6569411930
  H        12.0660938142        4.9065066587       34.1482304214
  H        11.4035429765        6.6404725955       34.1767238108
  H        10.3596416998        5.2692904963       34.1731473359
  C        10.7371885607        6.3817812128       28.9348647846
  H        12.2644672518        5.1409004376       30.0195432070
  H        12.6607922762        6.9313502149       29.7835016288
  C        11.1849628396        5.6883348786       27.6739111619
  H         9.7623104215        5.9609561794       29.1184859718
  H        10.6074059558        7.4694247357       28.8752516689
  C        10.0584463152        4.9546998484       26.8210771120
  H        12.0215292046        4.9959121194       27.6769860448
  H        11.8188779424        6.4746949421       27.0987473995
  C         8.9486916427        5.8657557321       26.3484686516
  H        10.5852000572        4.4757834890       26.0122519788
  H         9.6650438545        4.2396061734       27.5407088689
  C         7.8027273357        5.0856370389       25.6248389577
  H         8.4717021766        6.4270177960       27.1598836947
  H         9.5324774781        6.5800523245       25.6628992624
  C         7.4294500622        3.7522455755       26.2831383411
  C         8.1076356044        4.4876846007       24.3459018130
  C         6.5687271964        6.0527000043       25.2639194908
  C         7.6626817175        2.7229443059       25.3830335151
  C         6.7974836948        3.3211459331       27.4344993239
  C         8.1048940730        3.1456892726       24.1434627531
  C         8.5350322525        5.2181390892       23.2581603124
  H         6.1067177362        5.5291138233       24.4663848405
  H         6.8685222609        7.0555132126       24.9216843333
  C         5.5345554608        6.1501797490       26.4113475029
  S         7.2207786637        1.2045804968       26.0256522380
  C         6.7336759342        2.0025781075       27.5164807213
  H         6.7244427609        4.0206361171       28.2569711511
  C         8.3421778733        2.5569599029       22.9298517489
  H         8.6652840678        6.2779971026       23.4115571153
  C         8.8111778820        4.6311059722       22.0504708605
  H         5.4270417820        5.3058900848       27.1160908457
  H         5.8987428919        6.9328801451       27.1096217830
  C         4.1222458368        6.5650762093       25.8797958749
  C         6.1581400961        1.3226302672       28.7070046318
  C         8.7192665053        3.3249269413       21.8307324091
  H         8.1783007890        1.4686902078       22.7306590678
  C         9.2007190731        5.1136684610       20.7683166799
  H         3.7530477508        5.8415881737       25.1549703386
  H         3.8821007877        7.4926051022       25.2976974394
  C         3.1700248803        6.5042166261       26.9963700907
  C         6.2377745930       -0.0417795509       29.0227523965
  C         5.5678482994        2.1198534136       29.8089558481
  C         9.0839214289        2.6286599741       20.4965331280
  C         9.3922513666        4.0203746107       19.8918591107
  S         9.5381848029        6.6916059808       20.0904880422
  H         2.3592198402        7.1248697679       26.6072511871
  H         3.6226282872        6.9032129835       27.8569559400
  C         2.6209388894        5.2002942028       27.2722849457
  N         6.6182871420       -1.0103385147       28.0683918953
  C         5.9148323332       -0.6076451441       30.2437721528
  C         5.2786366821        1.5424435186       31.0105358749
  H         5.3374708500        3.1614971072       29.7016312975
  C         7.7603495517        1.8739500923       19.9618610280
  C        10.2860171355        1.7451622533       20.5733173798
  C         9.7082396874        4.5131411011       18.6169528300
  C         9.9074988931        5.8620351322       18.5220649836
  H         2.1201979457        4.7269318924       26.4388620254
  H         3.4059998901        4.5327454870       27.5074972901
  C         1.6166650543        5.2987673232       28.5021302678
  S         6.7605648055       -2.4155971748       28.9143361186
  N         6.1227502719       -1.9929852565       30.3251288456
  C         5.4885287592        0.1189128692       31.3610336778
  H         5.0540709726        2.2505134515       31.7869663962
  H         7.6223989068        1.0699075648       20.7027093898
  H         8.0725957526        1.3116047741       19.1225353624
  C         6.6667642687        2.8055069109       19.5308169169
  H        10.4671477015        1.1325577575       19.6868842667
  H        10.0214009047        0.9392178245       21.3111196644
  C        11.4915675798        2.4548925028       21.0556338606
  H         9.8033708779        3.7630245055       17.8280024166
  C        10.3302660595        6.5812002299       17.2895305573
  H         0.8187539333        4.5535806702       28.3933681152
  H         1.1156841977        6.2267937099       28.4945341729
  C         2.3265810104        5.2164590417       29.8480341485
  C         5.1852902209       -0.4489075114       32.6230823414
  H         6.8319303214        3.2535736797       18.5517469531
  H         6.6874291386        3.7041302185       20.0916405037
  C         5.3323571908        2.1185229846       19.7545039904
  H        11.3075488221        2.8714690850       22.0532636831
  H        11.7686031313        3.2610321789       20.3143575364
  C        12.7825203400        1.5947909293       21.2491826882
  C        10.2342826845        8.0270906168       17.1309737842
  C        10.7119469127        5.7523139567       16.1144790109
  H         3.1840500877        4.3988564523       29.8346109220
  H         2.8571804357        6.1437322135       30.0847577994
  C         1.3454164759        4.9387942971       30.9687440016
  H         5.3480449131       -1.5012997235       32.5327664233
  C         4.8946313581        0.0455208512       33.8560263015
  H         4.5856626642        2.8574646976       20.0375858086
  H         5.3763048628        1.4900082241       20.5847925632
  C         4.9769340759        1.2769022957       18.5035087013
  H        12.6794311999        0.8162370002       21.9770773682
  H        13.0985805089        1.1994966166       20.3635085566
  C        13.9350681747        2.5161025564       21.7307781619
  N         9.9447119418        8.8884144336       18.1908998194
  C        10.5239205133        8.6013588712       15.8987521380
  C        10.9791042551        6.3935799075       14.8498604717
  H        10.7586480007        4.7015595496       16.1785672080
  H         0.5069896799        4.2074840736       30.6207822014
  H         1.8252489038        4.5079612432       31.7723166943
  H         0.8812463267        5.8543272631       31.2642781299
  S         4.7238680682        1.6725622273       34.2509110535
  C         4.8590286223       -0.9234217599       34.9916751622
  H         4.9904909928        1.9240296249       17.6983514420
  H         5.7422069439        0.5410521636       18.2397996099
  C         3.5955016293        0.8686365451       18.4730315168
  H        13.4708501405        3.1987497121       22.4062100627
  H        14.4408390818        3.1064464582       20.9194220529
  C        14.9735566208        1.7938535122       22.6504198875
  S         9.9744675364       10.3729191326       17.5796898162
  N        10.4651772698        9.9908367756       16.0930606734
  C        10.9017309228        7.8720888348       14.7527360647
  H        11.1629570253        5.7501015704       13.9542113358
  C         4.5602983190        1.1175708343       35.9574392993
  N         4.5309522594       -0.2503926646       36.0966716100
  O         4.9689658373       -2.1905553498       34.8959793208
  H         3.1406376113        1.2278929258       17.6147421594
  H         2.9782264166        1.5428666081       19.0535640778
  C         3.4504296951       -0.6254798532       18.9187449380
  H        14.4003797835        1.1891687496       23.3975171550
  H        15.5728639016        1.0394914356       22.0976968273
  C        15.8585320058        2.9088146199       23.2013972779
  C        11.1358381211        8.5983397420       13.5730009394
  S         4.0680286906        2.1812571994       37.2659529534
  C         4.4121747992       -0.8350115858       37.3830658665
  H         4.2567634999       -0.7183388085       19.6558791004
  H         2.4977276105       -0.8303701134       19.4288742106
  C         3.7406875848       -1.7288722095       17.8748799982
  H        15.3750014482        3.5076849402       23.9225969394
  H        16.2014408507        3.6247270263       22.4016525992
  C        17.2173613318        2.3016733491       23.7150884040
  H        11.0706955847        9.6589550408       13.7403538443
  C        11.5473597525        8.2657989575       12.2635594617
  H         3.5845707471       -0.3354537088       37.9020193866
  H         4.0328778300       -1.8669060284       37.3615387248
  C         5.7246767257       -0.9394065417       38.1646413384
  H         4.5036426375       -2.3304528370       18.2593178666
  H         4.1611948625       -1.2595751428       17.0057386081
  C         2.5269013249       -2.6755621123       17.5962608162
  H        17.5844686995        2.8559273924       24.6347397525
  H        17.1635063015        1.2805696041       24.1342116748
  C        18.3063892781        2.2985222908       22.6080780356
  S        12.0870149307        6.7275836691       11.7830668663
  C        11.7564194775        9.3427825616       11.2840473521
  H         5.9489965291       -1.9622685460       38.1111745570
  H         6.5536092346       -0.3423966197       37.8003477600
  H         5.6440964335       -0.6078367864       39.1600184377
  H         2.1437688069       -2.9978587415       18.5908087307
  H         2.7727468445       -3.5484938331       16.9215757767
  H         1.6803750827       -2.1693563082       17.1968774101
  H        18.6187209920        3.3606156346       22.3911449157
  H        17.9593192696        1.8707624749       21.6491584712
  H        19.2147713241        1.6829041143       22.9545222709
  C        12.5755056550        7.5047737020       10.2694047690
  N        12.3649593277        8.8419063709       10.2229843813
  O        11.4996781809       10.5429516509       11.4319527950
  S        13.3015260988        6.6522540188        8.8809116855
  C        12.4447605759        9.6829441311        9.0387730300
  H        12.8948758861       10.6273913510        9.3473881217
  H        13.1248043485        9.2036834357        8.2940525519
  C        11.0947926068        9.8823071780        8.3146140074
  H        10.8543079958        8.9274665048        8.2460404149
  H        10.1844406910       10.2970716433        8.8759911532
  H        11.1538995035       10.0821485985        7.2702367589
  H        -2.8705049701       14.8813672934       16.2035755081
  C        -2.9339247311       13.8083744631       16.3300401326
  H        -3.8794290733       13.6048458901       16.7155346797
  C        -1.9337923493       13.3898680903       17.3980338845
  C        -2.6521209723       13.2180422885       14.8908898279
  C        -2.3180772558       13.6633996249       18.8403122958
  H        -1.7746146410       12.3388026098       17.3889472772
  H        -0.9330173525       13.9303324641       17.2403253634
  H        -2.6320310999       12.1558347601       14.9839054656
  H        -3.4412379290       13.3616086395       14.1412250029
  H        -1.6756019682       13.4407325181       14.5497280976
  C        -1.4700014637       12.9648001785       19.8697898775
  H        -3.3631692496       13.3876621393       19.0342674127
  H        -2.1175232041       14.7590281619       18.8647207409
  C        -1.9754225191       13.0956710553       21.3085061104
  H        -1.5021237918       11.9241364899       19.6516189151
  H        -0.4226848494       13.1640341440       19.6071685360
  C        -1.0244452700       12.3027850422       22.1861244611
  H        -2.9311913841       12.6209054553       21.3213205536
  H        -2.0041902665       14.1662287512       21.6005822656
  C         0.0927272227       13.2521254531       22.7217660309
  H        -1.5987497203       11.8003726960       23.0101566084
  H        -0.6541757505       11.4481738139       21.5985140023
  C         1.2991706763       12.5238834313       23.4151339631
  H         0.3239598514       13.8626016991       21.9028543284
  H        -0.3540034669       13.8926641098       23.4589956092
  C         1.7296261966       11.2334752285       22.6991005294
  C         0.9069974806       11.7270195210       24.5973982435
  C         2.3892947851       13.5463218260       23.5573820388
  C         1.5876709030       10.1390104797       23.4402135432
  C         2.1454294482       10.9303595700       21.4018100400
  C         1.0653803840       10.4344533353       24.6900340092
  C         0.5155898250       12.4074488488       25.6819454534
  H         2.5850311620       14.0220718492       22.5747333716
  H         2.0479503013       14.2893895698       24.2086096233
  C         3.7294141684       12.9454118031       24.0808463187
  S         2.0840925425        8.6753919848       22.7113913293
  C         2.3489514143        9.6211787402       21.2709443693
  H         2.1365915308       11.7565456649       20.6504356597
  C         0.6348249646        9.8630889503       25.9163446201
  H         0.5658667603       13.4824860841       25.6290186295
  C         0.0942133237       11.8956123704       26.8444728501
  H         4.2012823042       12.0830493203       23.5630347337
  H         3.5807952350       12.5688976546       25.0507563350
  C         4.8423135282       14.0353175932       24.1225223897
  C         2.8460540013        9.0027867963       19.9892819347
  C         0.1224892836       10.5697447096       27.0070839566
  H         0.6296526772        8.7774827032       26.0460025362
  C        -0.4142548971       12.3501651021       28.0627443933
  H         5.4818220366       13.7421150011       24.9752460070
  H         4.4929997370       15.0345612366       24.4576355968
  C         5.6234827946       14.2031949724       22.7686399426
  C         2.9766117151        7.6113806289       19.6938840370
  C         3.2137624355        9.8333077390       18.8290312889
  C        -0.3943491460        9.8701150978       28.1889743055
  C        -0.7892893612       11.2498103178       28.8818366636
  S        -0.6820990344       13.8704285794       28.8534898382
  H         6.3272427110       15.0361412217       23.0414180219
  H         4.9709600947       14.6688124920       22.1376949777
  C         6.4585212834       13.0076760909       22.2347254629
  N         2.6156229273        6.4969143237       20.4952613055
  C         3.2341528195        7.1643702221       18.3894567208
  C         3.5092904288        9.4274209951       17.5779563187
  H         3.2948531766       10.8976132168       19.0347621494
  C         0.7970551032        9.0796518650       28.9389126034
  C        -1.7501275795        9.1759339841       27.9260245127
  C        -1.2159876088       11.6579563459       30.1665629006
  C        -1.1636037845       13.0370978438       30.3074899154
  H         7.0997953042       12.4898106550       22.9539630025
  H         5.7702796353       12.2691129159       21.7566518823
  C         7.3885174748       13.5400367737       21.1662586772
  S         2.6823803358        5.1368286945       19.5679524877
  N         3.2087935027        5.7845297586       18.2154323964
  C         3.4889147639        7.9944021064       17.2786099994
  H         3.9343450315       10.1278652453       16.8853040751
  H         1.3042476413        8.4213050335       28.2214247036
  H         0.3825589603        8.4347761025       29.6956780827
  C         1.8675473478        9.9486591190       29.4824328013
  H        -1.5371581768        8.3125691955       27.2364969907
  H        -2.1496918924        8.8721357471       28.8468421621
  C        -2.8630826342       10.0123966856       27.2213211233
  H        -1.5086725259       10.8506884999       30.8440250019
  C        -1.4017655511       13.8111689599       31.5551261434
  H         8.2217496776       12.8710488639       21.0902210201
  H         7.7598846704       14.5672504205       21.2759552141
  C         6.8553318107       13.3895721699       19.7205534414
  C         3.8035571857        7.3792012693       15.9547556392
  H         2.3356483622       10.5590436477       28.7621940691
  H         1.4499664405       10.5967798606       30.2908490052
  C         2.9187795976        9.1553342092       30.2409504383
  H        -2.5424990553       10.4646651498       26.3262237141
  H        -3.1907429892       10.8600637540       27.8556992705
  C        -4.0037704581        9.3071789332       26.8080037317
  C        -1.3982587437       15.2052508871       31.6859497922
  C        -1.4618818297       13.0706107376       32.8792372130
  H         6.2119503565       12.5519743934       19.5772122653
  H         6.3870225427       14.2885524581       19.5937498059
  C         7.9237387987       13.1727478958       18.6670851340
  H         3.6135669987        6.3154539549       15.8403359350
  C         3.9977690162        7.9163666340       14.6791083897
  H         3.2712911748        8.3280391166       29.5902599501
  H         2.4263464573        8.6897162715       31.1442574664
  C         4.1321438242        9.9242974384       30.6814672064
  H        -3.5694250056        8.7204351148       26.0309840125
  H        -4.4327421747        8.5991292662       27.5501973578
  C        -5.1426554586       10.0501782469       26.0848932215
  N        -1.1252561568       16.1037778333       30.6620813285
  C        -1.6094474633       15.9063461095       32.8693814210
  C        -1.6784768110       13.7902401157       34.0248521924
  H        -1.4704506283       11.9618013888       32.9982424318
  H         8.5195261613       14.0882909301       18.3716823445
  H         8.5959124905       12.4085244573       18.8649595431
  H         7.4470719652       12.9506950996       17.7874031997
  S         4.0188316479        9.5643615601       14.2856003103
  C         4.1931256846        6.9448172250       13.5292319863
  H         4.3110556547       10.7512263163       29.9945241192
  H         3.8759089917       10.5422127677       31.5825092749
  C         5.3242183933        9.0851307249       30.8089584838
  H        -5.0605907298        9.8214512392       25.0877209792
  H        -4.9811361283       11.1632107780       25.9563589575
  C        -6.5172718854        9.5540942378       26.4053349738
  S        -1.2672445226       17.6541069836       31.1163075177
  N        -1.6086691135       17.3206231563       32.6761374808
  C        -1.9120639860       15.3103917235       34.0715289218
  H        -1.7254942828       13.2192308605       34.9429381403
  C         4.3299198574        9.0348072464       12.6322286035
  N         4.4573928680        7.6695013320       12.4728489771
  O         4.2673804306        5.7296667201       13.6111095584
  H         6.2981050694        9.6118001765       30.6374170926
  H         5.2763329057        8.3701667638       30.0157090346
  C         5.4687527991        8.3187699679       32.1178350604
  H        -6.5413015098        8.4454319692       26.1804869630
  H        -6.7201358449        9.7203724743       27.4357317549
  C        -7.6056482359       10.2199653580       25.5990893183
  C        -2.2209887880       16.1768616649       35.2076717045
  S         4.6917088974       10.0458865346       11.2554544972
  C         4.5617100555        7.0073803765       11.1627705525
  H         6.0472229166        9.0189103457       32.7847671225
  H         4.4989297558        8.0790329389       32.6333177691
  C         6.4186064905        7.1665956552       31.9606866912
  H        -7.1947813274       10.3286344867       24.5708345701
  H        -7.8776748096       11.1948946299       25.9172023606
  C        -8.9243828419        9.3701178424       25.2536312716
  H        -1.7934631510       17.1614531778       35.2034878371
  C        -2.6856566397       15.8823838375       36.4626623200
  H         5.2189891309        7.6329165820       10.5300450642
  H         5.0642661193        6.0344862148       11.1491045411
  C         3.1275004631        6.9207842389       10.5775321799
  H         6.8515524034        6.8425670639       32.9488533470
  H         7.2239909778        7.3625692549       31.2883953847
  C         5.6119778092        5.9277343293       31.6328683110
  H        -9.6294923081        9.7010094673       24.4749863998
  H        -8.7204356613        8.3718371531       24.8890619383
  C        -9.8212961974        9.1991681428       26.4136626003
  S        -3.3335073677       14.4354367182       37.0241745605
  C        -2.7413281073       17.0357556658       37.4554285646
  H         3.0854108535        5.9963184835        9.9356404891
  H         2.2562178373        6.9705003616       11.2637540807
  H         3.0115984601        7.8424039368        9.9460611231
  H         6.2047727993        5.0436959674       31.6050981562
  H         4.9999643281        5.9956894866       30.7657449029
  H         4.8860491108        5.6767333852       32.4694792519
  H        -9.2303122003        8.6101686350       27.1683460538
  H       -10.7167283911        8.6379610297       26.1493137661
  H       -10.1871481693       10.1839254857       26.8025682960
  C        -3.4464327938       15.2229430057       38.5697272846
  N        -3.3151160316       16.5779104199       38.5631460954
  O        -2.3698538634       18.1898494357       37.2723497847
  S        -4.2812686247       14.6148862952       40.0092857655
  C        -3.6344514906       17.4793344067       39.6809771455
  H        -4.1010403397       18.4023370066       39.3385450910
  H        -4.4249557675       17.1471229848       40.2785705553
  C        -2.4337928084       17.7118565473       40.5542069877
  H        -1.5596577117       17.1125266576       40.2204458309
  H        -2.0787138406       18.7769319789       40.4608676841
  H        -2.5071045468       17.5332563935       41.6282072587
