352
 i =    19600, time =    19600.000, E =        25.5349453118
  H        11.6112110625        7.7063062784       32.1170747768
  C        11.1709798518        6.7070538952       32.1123153293
  H        11.9447055953        6.3004093418       31.4623532301
  C         9.8120912183        6.7844367128       31.4410056514
  C        11.3258711984        6.0595712556       33.5174135902
  C         9.8993898950        7.3181135512       30.0533974948
  H         9.4182891524        5.7886994098       31.3282007758
  H         9.0638461868        7.4633040500       31.8914239394
  H        10.7627465774        6.5026487447       34.3142202297
  H        11.1553922956        5.0118576544       33.4205861695
  H        12.3638635792        6.0795843117       33.9011713803
  C        10.0463460796        6.2018663418       29.0551632292
  H        10.6005833274        8.1646665338       30.0335379746
  H         8.8922634425        7.7771752490       29.9022588351
  C        10.6016638071        6.5787388413       27.6909864309
  H        10.8725900673        5.5682695298       29.4597779057
  H         9.2169517762        5.5869736290       28.9193577532
  C         9.7532893960        5.8447773987       26.5881412758
  H        11.6210814763        6.1308462214       27.6800828499
  H        10.5925929188        7.6260223047       27.7007424620
  C         8.4304566589        6.5173200686       26.2298705551
  H        10.4146286978        5.8159214530       25.7910435746
  H         9.5208404109        4.8109615857       26.8591103980
  C         7.3857669308        5.6564038378       25.4836750107
  H         8.0207993609        6.9161017704       27.1193928325
  H         8.6685646048        7.3547851091       25.6413146123
  C         7.0854042839        4.3057152098       26.1902653900
  C         7.8997305520        4.8075196436       24.2875308215
  C         6.1043655177        6.5321173286       25.2467927370
  C         7.2845680199        3.1855267023       25.4678201565
  C         6.5681269516        3.9938571359       27.5057292261
  C         7.8531077157        3.4961062606       24.2509294476
  C         8.3183923139        5.3920436233       23.0921682830
  H         6.4940204009        7.2018072287       24.5384813911
  H         6.0143665054        7.0770161355       26.1875940411
  C         4.9198681814        5.7502277050       24.7988666228
  S         6.7644303655        1.7227755485       26.1446360161
  C         6.4161986918        2.6424251949       27.5995252105
  H         6.4517816135        4.8110552468       28.1806034431
  C         8.2765639242        2.8819578438       23.1182186996
  H         8.4836775362        6.4846971185       23.0255747018
  C         8.5299415676        4.7621694953       21.9260353469
  H         4.9601830231        5.5091654061       23.7801681814
  H         4.8294106957        4.7263602808       25.2250010983
  C         3.6532730476        6.5454234661       25.0846886509
  C         5.8860244496        1.9061868894       28.7897415582
  C         8.5544868425        3.4355771600       21.8479376111
  H         8.2155445506        1.7627065991       23.1203987220
  C         8.9699780284        5.1321704351       20.6813035261
  H         2.7596399451        6.2899153934       24.5002704360
  H         3.7939037483        7.5057714217       24.6486569550
  C         3.2268223729        6.6546728541       26.5548813143
  C         5.8462468823        0.5055996822       29.0169126249
  C         5.4102977862        2.7287404790       29.9134640107
  C         9.0346088781        2.7417240841       20.6297013743
  C         9.1864630870        4.0503116382       19.8799389942
  S         9.2845617639        6.5650843147       19.9021976774
  H         2.3357740565        7.3173554909       26.6161145411
  H         3.9764339276        7.0408283793       27.1876032239
  C         2.7693156248        5.2074804292       27.0516078333
  N         6.1476964082       -0.4816830982       28.0706506425
  C         5.5220361683       -0.0531025314       30.2235643077
  C         4.9996868466        2.1776742200       31.1545092325
  H         5.5113177240        3.7966178190       29.7497971683
  C         7.9508396499        1.8154635001       20.0238832636
  C        10.3646963629        2.0002685698       20.8415099400
  C         9.5204370893        4.3979120925       18.5642045582
  C         9.5609949789        5.7521599294       18.4242914811
  H         2.1633537127        4.8353113390       26.2313520519
  H         3.5643858943        4.5401153327       27.2175458883
  C         1.8582182877        5.4487185186       28.3004073867
  S         6.3013449228       -1.9388178745       28.8355363013
  N         5.6602116009       -1.4726416612       30.2729744681
  C         5.1952140116        0.7466988306       31.3670014769
  H         4.8047424783        2.8341847778       32.0135234662
  H         7.9224505766        1.0079163390       20.7521375989
  H         8.3184037814        1.4696212929       19.1027988868
  C         6.5746080258        2.4903404954       19.8921122322
  H        10.5412997649        1.4933047140       19.9454919511
  H        10.1002474860        1.1877963934       21.5874359809
  C        11.6048025884        2.8716468580       21.1661573808
  H         9.7703784300        3.6223328992       17.8832020509
  C         9.9215135284        6.5761542636       17.2502534125
  H         1.3914376483        4.4754741909       28.4955597401
  H         1.1931116674        6.2486720707       28.2788695909
  C         2.8197315168        5.6371978862       29.5254241780
  C         4.9883731702        0.0129556050       32.6117528149
  H         6.6452416682        3.4571723229       19.4516782351
  H         6.0719005846        2.6800717922       20.8719679631
  C         5.6184311121        1.7525027615       18.8688572180
  H        11.4995076385        3.2580319904       22.1429358620
  H        11.5458152145        3.7153950237       20.5297461504
  C        12.9174920481        2.0730577805       21.0136709561
  C         9.9849396486        7.9575549983       16.9888554107
  C        10.2437311687        5.7843170828       16.0350400311
  H         3.2716949967        4.7209298466       29.8697889264
  H         3.7055342515        6.3325021022       29.4251559706
  C         1.8709570593        6.0213319846       30.6934767377
  H         5.1500060932       -1.0535283643       32.4851639099
  C         4.6357671774        0.3946231239       33.8671504718
  H         5.3039773869        0.8365674290       19.4303432987
  H         6.2761539919        1.2291713150       18.1907763137
  C         4.3989945699        2.4242290238       18.2191301494
  H        12.9249329546        1.2685079488       21.7434316211
  H        12.8564774637        1.6099812805       20.0236692983
  C        14.1508221026        2.9148048671       20.9696804638
  N         9.8152358670        8.9156646487       18.0374805577
  C        10.2780376127        8.5548540101       15.7515331656
  C        10.6157270075        6.3090008540       14.8490699402
  H        10.1033810394        4.6832587200       16.0318065511
  H         1.8708843721        7.0530328008       30.9363557050
  H         0.8258840165        5.7411105402       30.5648877456
  H         2.3158715870        5.5140612291       31.5688966719
  S         4.3414823257        1.9837692839       34.4290541387
  C         4.5176844814       -0.7127142873       34.8589306122
  H         4.3870091093        3.4505721509       18.4109753861
  H         4.4528585169        2.1881200213       17.1009355224
  C         3.0576657602        1.8730825738       18.7512684628
  H        13.8830190198        3.7504352444       20.3341721215
  H        14.9935760927        2.4358280120       20.4703805405
  C        14.5203611382        3.3918326450       22.3742438538
  S         9.8628141534       10.3950480219       17.3171258388
  N        10.1377060624        9.9074715023       15.8122279421
  C        10.6309227080        7.7681997388       14.5984665531
  H        10.7490878956        5.6230040005       13.9674069110
  C         4.2076192784        1.2639603075       36.0169146450
  N         4.2893397955       -0.0717004695       36.0377656917
  O         4.6597628201       -1.8866805472       34.6553514977
  H         2.2798946085        2.5551599555       18.5282428349
  H         3.0793363356        1.5684490770       19.7841440974
  C         2.7079845697        0.6392338290       17.9756760134
  H        15.2513792741        4.2020017268       22.3227568547
  H        13.6941269830        3.8509159603       22.8278754619
  C        14.9847751999        2.1457117815       23.1832152572
  C        10.9236245262        8.3608079402       13.3570211253
  S         3.8991351210        2.1101237579       37.5298938759
  C         4.3818533877       -0.7543361601       37.3192614953
  H         1.9870386321        1.0143139383       17.2524289803
  H         3.5590762360        0.1459300998       17.5206678833
  C         2.0151863637       -0.4339989381       18.8740162280
  H        14.8753567841        1.1958260715       22.6426280705
  H        14.3051190106        2.0972914917       24.0654585655
  C        16.4377635191        2.3110433817       23.6694433869
  H        10.7923956050        9.4911159507       13.2641960013
  C        11.3736781412        7.8815623369       12.0838645806
  H         3.6930726284       -0.3181684325       38.0540278163
  H         4.0909783465       -1.8568575892       37.2306396226
  C         5.7803060349       -0.7266802088       37.8983909629
  H         1.1940049208        0.0454196941       19.4784039537
  H         2.7911985431       -0.8504851527       19.5876136012
  C         1.7070432788       -1.6940546037       18.0192527318
  H        16.6469682247        3.3753776494       24.0067066941
  H        16.6597315876        1.7016168827       24.5601145261
  C        17.4330651473        2.1233191408       22.5453186047
  S        11.6581365849        6.1907684790       11.6348860679
  C        11.6690932079        8.8221063158       10.9533322462
  H         6.0033480743       -1.6281527412       38.5640750698
  H         6.5139754281       -0.6952114761       37.1176113385
  H         5.8014272087        0.2487691627       38.4546287670
  H         0.9711313044       -1.4797959605       17.2310946147
  H         1.2801166574       -2.5432589914       18.5872384202
  H         2.5916642781       -2.2459114228       17.6836156168
  H        18.5029621584        1.9987966037       22.8331460591
  H        17.5572101506        2.9693729638       21.9252963053
  H        17.2962826986        1.1976861004       21.9764198232
  C        12.1762486631        6.8316678705       10.0007323121
  N        12.1350276660        8.1828549743        9.8435360316
  O        11.5662995220       10.0561410345       10.9986547719
  S        12.6740871326        5.8178663597        8.7117050524
  C        12.3566872706        8.9406975294        8.6142282743
  H        13.0725969394        9.7093111775        8.8952279875
  H        12.7502654505        8.3848216695        7.7930050005
  C        11.0406284709        9.5814805826        8.1384057706
  H        10.1016247057        9.1796794459        8.4318001808
  H        11.1344475217       10.6089680117        8.3300173152
  H        10.8852066551        9.3105227068        7.1413646528
  H        -3.3802785532       15.0738052366       16.5054873405
  C        -3.2428271390       13.9991075333       16.3533651386
  H        -4.2077179649       13.5289811433       16.4252261308
  C        -2.3276418129       13.5300893263       17.4486570359
  C        -2.7133282813       13.7403212024       14.8922643333
  C        -2.5488012178       14.2414240385       18.7198011644
  H        -2.3948647095       12.4289922179       17.4515948737
  H        -1.3262858153       13.8375263892       17.1583894693
  H        -1.5997844094       13.8390897055       14.8897061738
  H        -2.8683503842       12.7436947113       14.5920266366
  H        -3.1452699578       14.5909759848       14.3533398776
  C        -1.8267421818       13.5911840613       19.8852739331
  H        -3.6597007370       14.3338056495       18.9193002675
  H        -2.1253914779       15.1739800172       18.4546055455
  C        -2.2654521263       13.9948393512       21.2454992054
  H        -1.8443710077       12.5681425604       19.8459596442
  H        -0.7742682434       13.8935353803       19.8671208322
  C        -1.3104805838       13.3070430614       22.2715498138
  H        -3.2608699757       13.6129343921       21.3851619149
  H        -2.4272070777       15.0787324612       21.3771816854
  C        -0.0951867257       14.1946557622       22.5563264036
  H        -1.8132824118       13.0327206301       23.1971731698
  H        -1.0220903095       12.3966793197       21.8224814747
  C         1.1382836343       13.4745204526       23.2072109114
  H         0.1173412524       14.6997439276       21.6106705280
  H        -0.4280780476       14.9993720493       23.1920624522
  C         1.4365081475       12.1196137982       22.5169319482
  C         0.7504772918       12.7539476458       24.3714685602
  C         2.3926800234       14.4562591911       23.3127828720
  C         1.1414495964       11.0204154362       23.2917639964
  C         1.9195802335       11.7340993455       21.2432014468
  C         0.7805860927       11.4242959809       24.5483752682
  C         0.2737104862       13.4139322231       25.5260105110
  H         2.5057555158       14.9389280926       22.3146739929
  H         2.2086249031       15.1960349090       24.0322025025
  C         3.5898334935       13.7500402059       23.9022507185
  S         1.3319088878        9.4991555301       22.4880967376
  C         1.9383250576       10.3726900567       21.0882340356
  H         2.1138976838       12.5004309603       20.4824973620
  C         0.3292241240       10.8396876074       25.6303484334
  H         0.2398417677       14.5016783224       25.3564707518
  C        -0.0979586645       12.8194424929       26.6642942173
  H         3.6612524500       12.7646615229       23.4165708581
  H         3.3315170728       13.6938930371       24.9761200453
  C         4.8966329104       14.4812932645       23.8208111677
  C         2.4662050388        9.6582046132       19.8615145989
  C        -0.1196446953       11.4755773785       26.7842388633
  H         0.2482465435        9.7753238082       25.6283815737
  C        -0.5017674462       13.2591818234       27.9152510608
  H         5.5537845747       13.8359883840       24.4771036460
  H         4.9220266495       15.4521426483       24.3718067030
  C         5.3929746029       14.7233310385       22.4930228963
  C         2.5473561630        8.2541964162       19.5930721865
  C         2.9904367863       10.4540629450       18.7047297545
  C        -0.4543247114       10.8142587731       28.0441311965
  C        -0.7844806883       12.1656126562       28.7076145352
  S        -0.8236367357       14.7199624188       28.7402314942
  H         5.9031556807       15.6202422024       22.5096511569
  H         4.5008667860       14.7709134701       21.8587157916
  C         6.2735740530       13.6516088811       21.8657235745
  N         2.3414556023        7.2646765453       20.5642590903
  C         2.8004656365        7.7283697992       18.3471647046
  C         3.2691819825        9.9176209907       17.4589034355
  H         3.0989387570       11.4866197424       18.8724465856
  C         0.7844369737       10.0885213538       28.6664712562
  C        -1.6796257208        9.9323816707       27.9673834301
  C        -1.1881417190       12.5056757696       29.9765361297
  C        -1.1778730373       13.8319363365       30.1830478289
  H         7.0948634172       13.3825413186       22.4736016675
  H         5.7350012040       12.6339184784       21.8583853966
  C         6.6328760807       13.9752561978       20.4294708428
  S         2.3227051035        5.8083163971       19.8836245138
  N         2.8139596074        6.2873133505       18.4086804555
  C         3.1291490108        8.4761049222       17.2119038839
  H         3.6215386648       10.5626684504       16.6671098414
  H         1.1074114659        9.3173347616       27.8727155790
  H         0.2881850358        9.5806540000       29.4581799340
  C         1.9790804020       10.9987526196       29.1108339898
  H        -1.5186364784        9.2806956716       27.1421360540
  H        -1.8114663536        9.3117296592       28.8743103429
  C        -2.9642523758       10.7380926217       27.5910995022
  H        -1.4669686696       11.6678241040       30.6425850548
  C        -1.5902637197       14.4405993054       31.4562153632
  H         7.3017311050       13.1307099887       20.2395929998
  H         7.2011399356       14.8992820505       20.3398026712
  C         5.4522444165       13.8542901277       19.4722525317
  C         3.4011453473        7.7635201861       16.0187023514
  H         2.3923965888       11.4153896311       28.1829766614
  H         1.7493727080       11.8300995695       29.7974047808
  C         3.0157614673       10.0621446891       29.7656989737
  H        -2.8556557206       11.4582254833       26.7485387510
  H        -3.1469632902       11.3358538317       28.4536156913
  C        -4.0794265982        9.8029166790       27.3810542652
  C        -1.6160342991       15.8154202204       31.6893839958
  C        -1.7048367652       13.6477460143       32.6779432587
  H         4.9670310880       12.8514416905       19.8076360639
  H         4.6943846583       14.6068589881       19.6128880711
  C         5.8738614615       13.8219953881       17.9897741460
  H         3.1415207394        6.7259069167       16.0561809907
  C         3.7316067666        8.1909264251       14.7405768392
  H         3.0229960554        9.0682563595       29.1949333066
  H         2.5307440401        9.8553917661       30.7254477045
  C         4.3892027367       10.6466642807       29.9001608484
  H        -3.8817155958        9.0487220169       26.6413666601
  H        -4.1709304596        9.3512717573       28.3236357693
  C        -5.3357176863       10.5069800407       27.0654250704
  N        -1.3782718609       16.8090807216       30.7735887377
  C        -1.9365613426       16.4064852580       32.9029985113
  C        -2.0626080072       14.1845403907       33.9024744268
  H        -1.3160236270       12.6986700278       32.6209998859
  H         6.6712943971       13.1691844927       17.9223356420
  H         5.0432889931       13.5228015138       17.3691199512
  H         6.1941320508       14.7929291791       17.6534843233
  S         4.1109548047        9.7076407467       14.0727218779
  C         3.7116886074        7.0759542161       13.7481179175
  H         4.6759558463       11.2032160377       29.0118262306
  H         4.4474886367       11.3942677359       30.6951095228
  C         5.4773324286        9.6189624516       30.3161360867
  H        -5.2995276569       10.6789105570       25.9953128177
  H        -5.4191655189       11.4627433570       27.5910852748
  C        -6.5984978346        9.5974854685       27.4118660326
  S        -1.5389573357       18.2707020530       31.3997280069
  N        -1.9492087541       17.7767239985       32.8602574112
  C        -2.2023284090       15.6286659688       34.0221333217
  H        -2.1430685675       13.5426848006       34.8233908226
  C         4.3922570242        8.8620727796       12.5555378144
  N         4.0974408833        7.5230263008       12.5883104254
  O         3.4655963962        5.8755375663       14.0223467296
  H         6.1664890440       10.0115976443       30.9996974618
  H         6.0570753623        9.1590908599       29.4301205699
  C         4.9640801118        8.5217129464       31.2010589371
  H        -6.6797060368        8.7655324325       26.7473238487
  H        -6.4679330994        9.2850990089       28.4819874033
  C        -7.8853490331       10.3936223202       27.3359599651
  C        -2.4759149098       16.3396418308       35.2513356328
  S         4.7913332888        9.5433783901       11.0022726743
  C         4.2442163315        6.6330908764       11.4247084512
  H         4.8898274708        9.0903845465       32.1254889496
  H         4.1213336347        7.9962147977       30.8432547891
  C         6.0482040547        7.5455957677       31.5352127889
  H        -7.7069527206       11.3979359329       26.9265609115
  H        -8.3440596975       10.6173054648       28.3011800352
  C        -8.9681016120        9.5994430929       26.5818690101
  H        -2.3180214996       17.3685446836       35.2473979996
  C        -3.0223056673       15.9272265528       36.4805063770
  H         5.0864926505        6.8337934136       10.8670192883
  H         4.4748670154        5.6859926748       11.8922727242
  C         2.9845698787        6.4535734585       10.6066101958
  H         6.7775171069        8.0162405290       32.1342592761
  H         6.5366989147        7.2445194074       30.6430151874
  C         5.5793020662        6.2633072409       32.1034331325
  H        -8.8868332832        8.5406038945       26.7798546821
  H        -9.9511964480        9.8060003803       27.0412030786
  C        -8.7861285701        9.7144519901       25.0630942594
  S        -3.5646314223       14.3442215574       36.9146082814
  C        -3.2008862077       17.0152296428       37.4827743039
  H         3.2839330435        5.9598110692        9.6722182215
  H         2.2793403984        5.7481594637       11.1024905416
  H         2.4998599066        7.4076269224       10.3047202926
  H         6.5113668068        5.7158650542       32.4476847138
  H         5.0149188913        5.5962001145       31.4206130862
  H         5.0084545249        6.4394065697       33.0396332217
  H        -8.3396808360        8.7467207734       24.6853350070
  H        -8.2114028359       10.5027011194       24.6393305043
  H        -9.7857074905        9.7264667629       24.6304466239
  C        -3.8508996640       15.1059582837       38.5079618918
  N        -3.8676269906       16.4884190938       38.5670687575
  O        -3.0846789266       18.2042299714       37.2614651369
  S        -4.2505541824       14.2212923577       39.9998384593
  C        -4.1539922219       17.3204846007       39.6849524976
  H        -4.3767993751       18.3319624790       39.3226858997
  H        -5.1455868003       17.1046961843       40.0992708714
  C        -2.9471424957       17.5609668927       40.6381489510
  H        -3.2406111105       17.8573201214       41.6219127211
  H        -2.3670358287       16.5694877241       40.6946502890
  H        -2.2535754988       18.3347322592       40.2333882194
