352
 i =    95300, time =    95300.000, E =        25.1950627802
  H         9.6612709305        5.9419310801       31.8564244173
  C        10.3360517774        6.6802326816       32.0618812575
  H         9.8591557860        7.5381186142       32.4824818534
  C        10.8501905659        7.0245894976       30.6524535257
  C        11.2929548433        6.1101895820       33.0577184634
  C        11.2068165309        5.8533671165       29.6957352481
  H        10.1628905607        7.6627876645       30.1313547432
  H        11.8224711841        7.5357553791       30.8932888803
  H        12.2492931128        6.3530245182       32.7436324736
  H        11.0052775126        6.5080253774       34.0443935187
  H        11.2319497657        5.0536119652       32.9840052644
  C        10.1114315382        5.4013870859       28.7915136157
  H        11.5548722566        4.9655358640       30.2150407442
  H        12.0868390029        6.0239536695       29.0397013514
  C        10.5104175664        5.6515441238       27.3522199981
  H         9.9387608375        4.3558327024       29.0263156751
  H         9.1548444712        5.9003139119       28.8781892860
  C         9.5406526008        5.1309275672       26.2708182810
  H        11.4615477280        5.1857692869       27.0118981962
  H        10.6446694225        6.7041459693       27.1472014606
  C         8.2047484308        5.8435147982       26.1638962591
  H         9.9624628409        5.2190574482       25.3181846264
  H         9.4462329483        4.0971411096       26.3439856956
  C         7.1728698274        4.9892413588       25.2945710478
  H         7.7491461623        5.9569444429       27.1226856394
  H         8.1897638146        6.8392196005       25.7969711961
  C         6.8440968473        3.6873449396       26.0320667534
  C         7.7613566805        4.3105721393       24.2027877484
  C         5.9308841104        5.7962231221       24.7215268949
  C         7.1150127173        2.5822101479       25.2472304006
  C         6.2887530867        3.3545511211       27.3040311110
  C         7.6879467630        2.9831850436       24.0810056071
  C         8.2888300639        5.0203515433       23.1429430493
  H         5.2802229535        5.2903648818       24.0408665978
  H         6.2426423593        6.5822064612       24.1151789449
  C         4.9409231074        6.2486544662       25.8253054215
  S         6.7061833901        1.1335363093       25.9827549669
  C         6.2091160733        2.0091272172       27.4114242169
  H         6.0680761950        4.1745951842       27.9609525371
  C         8.1199105962        2.4665732798       22.9026668747
  H         8.2722591657        6.1475096169       23.2243983526
  C         8.7077089688        4.5184814095       21.9876017477
  H         4.6882010219        5.4669801956       26.4763750029
  H         5.4224266898        7.0496265502       26.4644733177
  C         3.6906315237        6.9606658183       25.3446722811
  C         5.9369302443        1.3062026183       28.6787728102
  C         8.6517428106        3.1846037213       21.8198412191
  H         8.0781145839        1.3926705015       22.7161509351
  C         9.2766821706        4.9736978638       20.8161168683
  H         3.3208754350        6.4622922805       24.4287768392
  H         3.9602091093        7.9369753060       24.9897407030
  C         2.7191658697        7.0533070898       26.4633844036
  C         6.0865028214       -0.0788762333       28.9448596316
  C         5.5820683556        2.1251876346       29.9059476940
  C         9.1493710607        2.5269355681       20.5911549355
  C         9.4636218830        3.9099602142       19.9688443909
  S         9.5539529170        6.5169702018       20.1120785524
  H         1.9075216397        7.6118875089       26.0857015767
  H         3.1403385365        7.5328074740       27.3309669228
  C         2.0281877743        5.7204251090       26.8934724080
  N         6.4363340045       -1.1071405632       28.0489464636
  C         5.8976279268       -0.5903750978       30.2121665374
  C         5.2328954015        1.5468255365       31.0974921460
  H         5.6256715666        3.2009958248       29.8697713159
  C         8.0943238223        1.8339145280       19.7587250811
  C        10.4965208326        1.7325842006       20.8073773756
  C         9.9306744171        4.3478747060       18.6974824740
  C         9.8353373760        5.7189814399       18.5826139684
  H         1.2127056723        5.5565417216       26.1658640101
  H         2.7550714315        4.9294430747       26.7569072820
  C         1.3543270961        5.7405965727       28.2429743232
  S         6.4641849631       -2.5625009448       28.8114394757
  N         6.1461331705       -1.9821750951       30.3085912542
  C         5.3889501080        0.1274005241       31.3302759435
  H         5.0197820169        2.1233433998       31.9444003911
  H         7.9149487724        0.9142725852       20.2343998828
  H         8.3622101969        1.3912091131       18.7939345196
  C         6.8524499112        2.6976175399       19.4761720072
  H        10.9365675694        1.5503073905       19.8277874489
  H        10.2706390968        0.8686031492       21.3745340734
  C        11.5816439904        2.6265676051       21.4697634510
  H        10.1060083869        3.6444342535       17.9150931155
  C        10.1097604689        6.4964353601       17.3061564423
  H         0.6797967375        4.8590828431       28.3321829495
  H         0.7518177980        6.6169130198       28.3643754677
  C         2.3561513456        5.5828503150       29.3658846834
  C         5.1506263143       -0.5075745318       32.5571027870
  H         7.1682320605        3.5255797936       18.8309128201
  H         6.4740731533        3.1151375292       20.3815204092
  C         5.7567618303        1.8704512978       18.8413697221
  H        11.2968867912        3.1829190547       22.3326950081
  H        11.9259356724        3.3236965084       20.7151848163
  C        12.9088839690        1.8362646818       21.9007194078
  C        10.2658329747        7.9161090716       17.2297910339
  C        10.2921814861        5.7709409060       16.0241427289
  H         2.7514909043        4.5849989530       29.2357490164
  H         3.2796474304        6.1711733347       29.0356237733
  C         1.9901368299        6.0321596354       30.7944892739
  H         5.1133203412       -1.5723865645       32.6141871475
  C         4.9525877190       -0.1044980925       33.8466516371
  H         5.5104395918        1.0322655988       19.4867812575
  H         6.0913111609        1.2664260528       17.9823903325
  C         4.4804219863        2.5513681407       18.3882143754
  H        12.5604906770        1.1740874928       22.6629062436
  H        13.3197942386        1.2311165800       21.1237042544
  C        13.9939028513        2.7255847995       22.4914121183
  N        10.1077853088        8.8154601226       18.2444398506
  C        10.5675216985        8.5171166934       16.0475396885
  C        10.6181393782        6.3744348593       14.8608129145
  H        10.1952287368        4.7330924019       16.0416793774
  H         1.2456435569        5.4632845373       31.3574872113
  H         2.8112432259        5.9070901378       31.5173363602
  H         1.6456488686        7.0556692960       30.8994697462
  S         4.7366677322        1.5158408180       34.3765797474
  C         4.7450495166       -1.0882265576       34.9406270752
  H         4.3208804487        3.3049473479       19.1248830409
  H         4.5658331622        2.9230989994       17.4425331194
  C         3.2978646289        1.6245644690       18.4956694499
  H        13.6076364726        3.4074623932       23.2523612317
  H        14.4635947699        3.2895717505       21.7248128218
  C        15.2040271472        1.8525710918       22.9770660352
  S        10.0161273171       10.3620362384       17.6429017360
  N        10.6347053889        9.9290427978       16.1700459914
  C        10.7641947734        7.8833373030       14.8116042864
  H        10.8955638959        5.7092588467       14.0296179454
  C         4.4203998392        0.8992627519       36.0516047655
  N         4.5644298914       -0.4466298969       36.1241469228
  O         4.6317895323       -2.2806959266       34.7788347734
  H         2.5677562996        2.3328566150       18.0792589780
  H         3.0512417139        1.3299755758       19.4715147073
  C         3.4217101639        0.2967872658       17.7738529551
  H        14.8969150434        1.0761439238       23.7597865485
  H        15.6006494430        1.2978329108       22.1611017464
  C        16.2726248039        2.7588449339       23.6671766421
  C        11.2608547911        8.5928992374       13.6321429253
  S         4.2916856122        1.7398448557       37.6135188962
  C         4.3893773823       -1.1948108765       37.4607047158
  H         3.4504746492        0.5496850004       16.7014819272
  H         4.4405356837       -0.1573192582       17.8055537873
  C         2.3339644713       -0.7015723515       18.1007088349
  H        16.1053699259        2.9309534075       24.6801988220
  H        16.3005234779        3.7347738579       23.1988276070
  C        17.6775253785        2.1694967180       23.4777046719
  H        10.9565693769        9.6119239314       13.6412254814
  C        11.9342784965        8.2209440116       12.4676765315
  H         4.0264353014       -0.6167654398       38.2699901270
  H         3.5880626985       -1.9335720389       37.5052077818
  C         5.7225600124       -1.8079928035       37.7428517924
  H         1.5408871376       -0.0724803646       18.2923482512
  H         2.6962242459       -1.1608409799       19.0236258980
  C         2.0498900240       -1.5687254404       16.8951226086
  H        18.3557523732        2.6600092459       24.2160476409
  H        17.8268517654        1.1489274408       23.6870404044
  C        18.2385388265        2.3957317742       22.1276537199
  S        12.5597958539        6.6257907434       12.0333044861
  C        12.0315145343        9.2356711978       11.4268985216
  H         5.4359765041       -2.6572711276       38.4196875943
  H         6.3204734845       -2.2140313369       36.8972665168
  H         6.3899190070       -1.0833129814       38.3018549562
  H         1.1477063234       -2.1249805323       17.1421408676
  H         2.8066460442       -2.2927603501       16.8132542886
  H         1.8785824987       -0.9487569718       16.0120793408
  H        19.3201054253        2.2318168780       22.0492458769
  H        18.1329954279        3.4186231118       21.7347166264
  H        17.8115570419        1.7777875384       21.3866430794
  C        12.9874366499        7.3612425363       10.4416212151
  N        12.7443383920        8.6903479783       10.4018231820
  O        11.6736301797       10.4078461432       11.5434840360
  S        13.8384544628        6.5784056939        9.0800820912
  C        12.9447166053        9.4510925177        9.1357267871
  H        12.8854348094       10.5091180307        9.3903110117
  H        13.7738483978        9.1937926204        8.6254220571
  C        11.7782737175        9.0504937428        8.2039604046
  H        11.5537703393        9.8525714210        7.4860900217
  H        12.0557302186        8.2510375738        7.5265914294
  H        10.8638813483        8.8098608599        8.7742980095
  H        -3.7095747196       14.2512915637       16.2503370907
  C        -2.6418245434       13.9072827086       16.5749551083
  H        -2.6768285471       12.9015022986       16.9306573510
  C        -2.3179122058       14.7239989067       17.7604883724
  C        -1.7117634118       14.1039579057       15.4038872686
  C        -2.6902116541       14.0200763911       19.0361874471
  H        -1.3061341483       15.1298185366       17.7645124961
  H        -2.9957088441       15.6818266727       17.6654315539
  H        -1.5156322477       13.0685163207       15.1008636466
  H        -2.2374757824       14.5615177799       14.5534415044
  H        -0.7480080282       14.6388481639       15.7148061837
  C        -1.5305205968       13.9116566071       20.0204620936
  H        -3.0232077636       12.9978136063       18.9227756635
  H        -3.4655276872       14.6671729400       19.3714811938
  C        -2.0388698259       13.4753793797       21.3937607057
  H        -0.7070172789       13.3194426866       19.5690359481
  H        -1.1962190840       14.9204532626       20.1668537716
  C        -0.9582050555       12.8306346007       22.2557822379
  H        -2.7114915894       12.6286673549       21.2089081665
  H        -2.6733568699       14.2378237034       21.8410038534
  C         0.2481961199       13.8398889761       22.4963931567
  H        -1.3682048302       12.5284911971       23.1555249503
  H        -0.6780321062       11.9795209527       21.6751078977
  C         1.3418298895       13.2163120392       23.4208948192
  H         0.6303819588       14.1498276494       21.6001327621
  H        -0.0356622297       14.8094021848       22.8676676227
  C         1.7196382323       11.9435795908       22.7226035949
  C         0.8695222681       12.4378698927       24.6340946260
  C         2.3651792687       14.1816756380       23.8249982960
  C         1.6735000161       10.8174251230       23.5077890138
  C         2.1015976620       11.6361147767       21.4371146513
  C         1.0224372967       11.1021606185       24.7010994310
  C         0.2982291641       13.1441950039       25.7128384825
  H         2.0420703558       15.0476005390       24.3835409609
  H         2.9483413600       13.7181762655       24.5552149512
  C         3.3474277591       14.6358871628       22.7180692442
  S         2.0998434640        9.3878818725       22.7183131970
  C         2.3825294973       10.3035939347       21.2749995605
  H         2.0399489521       12.3458081137       20.6162626533
  C         0.6962150324       10.4791172106       25.8416956005
  H         0.1295946291       14.1634639171       25.7486929864
  C        -0.0167370321       12.5121869319       26.8666758037
  H         2.7894389685       15.5046000043       22.4130942000
  H         3.3766385739       14.0776582164       21.7913613972
  C         4.7722757980       14.9747993487       23.2139189035
  C         2.6514849547        9.6956467956       19.9440023720
  C         0.1215973867       11.2060611068       26.9209249913
  H         0.7688796617        9.3978389724       25.9732117351
  C        -0.3396040165       12.8379576800       28.1685217616
  H         5.1505512603       14.2332225666       24.0235198115
  H         4.6809107560       16.0143545973       23.7000909675
  C         5.8819983086       14.9394448723       22.0887082765
  C         2.8046544813        8.3217692588       19.6689590852
  C         2.9340401109       10.6242420707       18.8396331304
  C        -0.1798904755       10.4889015213       28.1197851494
  C        -0.5120437125       11.7250556067       28.9391068391
  S        -0.7131543897       14.3067911455       29.0207623163
  H         6.7650887870       15.2005579876       22.5863972826
  H         5.7318270783       15.7339372115       21.4126955390
  C         6.0658849402       13.5320335976       21.4858611126
  N         2.7034441542        7.3168991614       20.6037367883
  C         2.9722744574        7.8356879701       18.3939134091
  C         3.3376747308       10.1397447556       17.5746941470
  H         2.9934667491       11.6928121156       18.9366850334
  C         1.1035749856        9.8478064212       28.7741297096
  C        -1.4272074925        9.5911313559       27.9995320555
  C        -0.9071391264       11.9939150777       30.2527015712
  C        -0.9975199342       13.3357845599       30.4654560762
  H         7.0391830564       13.1574156899       21.7947187205
  H         5.3502956916       12.7698833535       21.8067515411
  C         6.0685296395       13.5325922052       19.9786134258
  S         2.7431481013        5.8815182740       19.8585248234
  N         2.8110504825        6.4262030737       18.3381350421
  C         3.2500739880        8.6734391754       17.3028022645
  H         3.6506890709       10.9134876045       16.8520150584
  H         1.3917610956        8.9477848820       28.2321683534
  H         0.8052767973        9.3358498002       29.6976804393
  C         2.2859452478       10.6767965701       28.9537653178
  H        -1.3084438435        8.8982430416       27.0973437345
  H        -1.5118155649        8.8821391380       28.8139205801
  C        -2.7879124111       10.3388855257       27.9034813241
  H        -1.1252478576       11.1581391430       30.9536033157
  C        -1.4741283058       14.0108963832       31.7161424309
  H         5.6740356942       14.5041767161       19.5884091787
  H         5.4727587611       12.6874534577       19.5394169675
  C         7.5266401218       13.4508669450       19.4778123330
  C         3.5248731125        7.9647340240       16.0824515422
  H         2.7262999644       11.0090583272       28.0059801805
  H         2.0283838471       11.5759959651       29.4348403810
  C         3.3465933905        9.9200834746       29.8382295393
  H        -2.7217145723       11.0650807720       27.1103454812
  H        -3.0194202409       11.0518242052       28.7037698655
  C        -3.8768044132        9.2691746537       27.6063187674
  C        -1.5737243231       15.4004859144       31.9490343991
  C        -1.8978250082       13.2005456989       32.8697423805
  H         8.0822756236       14.2233311876       19.9941506657
  H         8.0073124781       12.5007276047       19.5018523211
  C         7.5478239004       13.8137029532       18.0037761672
  H         3.2973204471        6.9269643774       16.0581487752
  C         3.9349328357        8.3279204397       14.7969602127
  H         3.0558524338        8.8758801228       29.8436445654
  H         3.2026700174       10.1185901899       30.9526928034
  C         4.7771003498       10.0351098992       29.3433447434
  H        -3.6715939413        8.5286892553       26.8131686710
  H        -4.0282475259        8.7064027837       28.6163403172
  C        -5.2313821905        9.9157394641       27.3450793840
  N        -1.3947192456       16.3402683112       30.8863856872
  C        -1.9605308188       15.9917301667       33.1471810526
  C        -2.1936627380       13.7891526018       34.1125357448
  H        -1.8781570661       12.0605008282       32.7527214196
  H         7.1647131567       14.8076890464       17.8067569827
  H         8.5317302663       13.6872876825       17.6040880401
  H         6.8696408942       13.2166111519       17.4161747540
  S         4.2289219287        9.9330604805       14.2518992012
  C         3.9093106713        7.3143817291       13.6941332218
  H         4.8428535348        9.2667673460       28.5131004593
  H         4.9193535607       10.9630007657       28.8023794828
  C         5.8221595604        9.6722633133       30.4440089461
  H        -5.2286079992       10.8400599401       27.8467415534
  H        -6.0491476041        9.2496538451       27.6019452017
  C        -5.3765946613       10.1682479852       25.8340983825
  S        -1.6272084740       17.8487349587       31.4530071783
  N        -1.9725310425       17.4531781658       33.0010363574
  C        -2.0929829024       15.2746902510       34.3262125660
  H        -2.4203845875       13.1446108099       34.8885191493
  C         4.3655142204        9.2227553686       12.6927345294
  N         4.2482829304        7.9319465034       12.5682186553
  O         3.5041782955        6.1867147155       13.8289889027
  H         5.3541072166        9.5628344224       31.4285018079
  H         6.4251629825       10.5532349254       30.6837826829
  C         6.7185615846        8.4412870203       30.2173525652
  H        -4.4848837856       10.7467668077       25.5071821635
  H        -5.5517428027        9.3374849352       25.0829158840
  C        -6.4333404443       11.2430329123       25.5941102811
  C        -2.3551919774       15.9491723686       35.5535635878
  S         4.7491435624       10.0418014739       11.1525622306
  C         4.1659780286        7.1595538177       11.3579327870
  H         6.9287386492        8.3817584544       29.1261983985
  H         7.6857507967        8.5330035706       30.6587484767
  C         5.9142707268        7.1360628493       30.4800702267
  H        -6.2539634536       11.6642959901       24.5624857697
  H        -6.2419001598       12.1160863236       26.1704502276
  C        -7.8917819644       10.8368825870       25.8015875352
  H        -1.8173772436       16.8979805140       35.6182041956
  C        -2.9315557455       15.6575365426       36.7429284239
  H         4.9765760180        7.3345001802       10.6949481107
  H         4.3465704202        6.0744221804       11.5687952139
  C         2.8551381798        7.3400630956       10.6574812279
  H         5.9189647235        6.6227231392       29.5443612261
  H         4.8791030127        7.3243193672       30.7779010200
  C         6.5707388867        6.1713578566       31.5056531962
  H        -7.9680087251       10.4725511277       26.8297390176
  H        -8.4348902079       11.7718575488       25.8605188078
  C        -8.5558637544        9.8742601094       24.7859199637
  S        -3.7152424236       14.1573914536       37.1611907774
  C        -2.8541244536       16.6237206965       37.8692835679
  H         2.3288434080        6.3794068870       10.8145339334
  H         2.3489194528        8.2102553540       11.0880770798
  H         3.1323516342        7.5112420560        9.6447089081
  H         6.4548520560        6.4468028036       32.5571045059
  H         7.5929861748        6.1539797067       31.3072453789
  H         6.1997958317        5.1730359780       31.4750645976
  H        -8.0397411342        8.9009441642       24.8445920758
  H        -8.4620721311       10.2555705904       23.7385845513
  H        -9.5531062993        9.7051024748       25.0274701112
  C        -4.0442011173       14.8684297545       38.7119194644
  N        -3.5333798361       16.1109694261       38.8829917157
  O        -2.4013168677       17.7450257015       37.7100662764
  S        -4.7112615727       14.0086325759       40.0827294866
  C        -3.7417326910       16.8967639613       40.1103377870
  H        -3.8636239849       17.9333934212       39.8162572476
  H        -4.6361188009       16.5143052090       40.6279566229
  C        -2.4813587351       16.9548749155       40.9404459974
  H        -1.6139283497       17.4548536518       40.4017988885
  H        -2.6675198091       17.4878189749       41.8766381747
  H        -2.0259987549       15.9807592971       41.1131168557
