352
 i =    79000, time =    79000.000, E =        24.9667819714
  H        10.8579338053        7.7499836653       31.2840408715
  C        11.4126244899        6.8770613410       31.5986331329
  H        12.2405941109        7.2854554016       32.1269312704
  C        12.1443520102        6.0349663356       30.5118811274
  C        10.6098541670        5.9946101460       32.5177962882
  C        11.1397631276        5.2785068041       29.7123681982
  H        12.7157513710        6.6589281137       29.8332446339
  H        12.8229755388        5.3257938190       30.9711204725
  H        11.0099750195        4.9809238152       32.7087758527
  H        10.6286265257        6.3385294777       33.5360880575
  H         9.5795308096        5.9948151367       32.2786250222
  C        10.3436861819        6.2460277979       28.7706899788
  H        10.4487698456        4.7825499249       30.4029870570
  H        11.7170791112        4.4997099674       29.1602085811
  C        10.6311625789        5.9666606370       27.2727301623
  H         9.2962213231        6.3669469590       29.0919107818
  H        10.6427242747        7.2726516587       28.9768427978
  C         9.4912566002        5.1128751101       26.7502850466
  H        11.5206760561        5.4733439615       27.1485201300
  H        10.6341252124        6.8572151953       26.7136331172
  C         8.3194923269        5.9440813532       26.1507915341
  H         9.8011909523        4.3401472602       26.0482305864
  H         9.0941957112        4.4723716723       27.5353851772
  C         7.2973558214        5.0141143916       25.3930279789
  H         7.9339325484        6.4412301881       26.9809488663
  H         8.6406471840        6.6581922779       25.4545165277
  C         7.0606966686        3.7321903834       26.1557303964
  C         7.8231947530        4.2618184225       24.2382271388
  C         6.0260526266        5.7782475455       24.8376365073
  C         7.4364275637        2.6290651709       25.4332743882
  C         6.6377282853        3.4330707228       27.4395325429
  C         7.7732415106        2.9271373791       24.1798623759
  C         8.2672935562        4.9558845161       23.1638454596
  H         5.5507496541        5.2001655354       24.0627187223
  H         6.4403932959        6.6696219019       24.4326112250
  C         5.0212394209        6.0215037985       25.9196833378
  S         7.1524029609        1.1700565282       26.3229759605
  C         6.5148864716        2.0657579006       27.6785770646
  H         6.4601032353        4.2492247779       28.0785730091
  C         8.1194935134        2.3538643148       23.0158452144
  H         8.3702369330        6.0183459672       23.2551379847
  C         8.5377531458        4.3190376436       21.9698555401
  H         4.7810752697        5.1126611687       26.5041973921
  H         5.5452930185        6.6333970934       26.6162881815
  C         3.7668201660        6.6454581075       25.3978441226
  C         6.1239054626        1.4290750353       28.9840992376
  C         8.4480970166        3.0187889773       21.8435286366
  H         8.1779084727        1.3608893810       23.1382980615
  C         8.8968434010        4.6942359449       20.7290747409
  H         3.4174534414        5.9822790177       24.6376768914
  H         3.9300354538        7.5554172532       24.8569627370
  C         2.7580136540        6.8780346029       26.4584444452
  C         6.1463205357        0.0526540031       29.2761420924
  C         5.7848186402        2.2798372759       30.0952310745
  C         8.7938314668        2.2880054015       20.5264063845
  C         9.0324958814        3.6357722901       19.8525162886
  S         9.0317352828        6.1688705772       19.9043334944
  H         1.9308127661        7.4287564856       26.0840314070
  H         3.2061855130        7.4373667997       27.2719685995
  C         2.2636755666        5.4603978852       27.0514644041
  N         6.5906895675       -0.9738712044       28.4078632609
  C         5.8693788064       -0.4795960224       30.5585808329
  C         5.4511266859        1.7804646334       31.3351326593
  H         5.7566243984        3.3679118111       29.9672677530
  C         7.5833751647        1.5817090556       19.9433486927
  C         9.9789481143        1.3808129792       20.6199353775
  C         9.3547591201        4.0732980989       18.5697906382
  C         9.3732323809        5.4456299639       18.4145665418
  H         2.5467526627        4.7299814227       26.3370203716
  H         2.7897239626        5.2772096448       27.9569524621
  C         0.7473484764        5.4664485629       27.3286618099
  S         6.4092588230       -2.4268115450       29.1420669293
  N         5.9152163328       -1.8978751458       30.6380836860
  C         5.5181565357        0.3061927360       31.6086160191
  H         5.2321490923        2.5247299450       32.1188982541
  H         7.3123786127        0.8117968834       20.6091086056
  H         7.8345074291        1.0302375742       19.0912445006
  C         6.3782381768        2.4640502982       19.6126775160
  H        10.1491327503        0.8233770322       19.6736134346
  H         9.6811581580        0.6081596175       21.2882191042
  C        11.2193377084        2.1087117920       21.0903569660
  H         9.6351655626        3.2979025334       17.8420303407
  C         9.8329054223        6.2432148860       17.1414534855
  H         0.2272666792        4.8673772897       26.5238321218
  H         0.3417855983        6.4457282756       27.3845063503
  C         0.4179271995        4.9133077635       28.6549117374
  C         5.2366435176       -0.2772229494       32.8659862769
  H         6.6117480573        3.0844314317       18.7472780129
  H         6.1856255299        3.1863930934       20.3768255205
  C         5.1150105959        1.7348538668       19.3452812761
  H        10.9139028034        2.7525629073       21.9531262754
  H        11.4849523481        2.9798437978       20.3908689136
  C        12.3502048186        1.1914426296       21.5048776073
  C         9.9296832168        7.6807089181       17.0233555040
  C        10.2657933792        5.5002468413       15.9302949989
  H        -0.6769454809        4.7264634478       28.6547032813
  H         0.9265406488        3.9298996285       28.8324696598
  C         0.9044703228        5.9204329910       29.7081979159
  H         5.6157861650       -1.2241405394       32.8881516283
  C         4.7478051322        0.1003722246       34.0675004013
  H         4.3683584775        2.4781056260       19.7253809994
  H         4.9549550646        0.8726893693       20.0160171932
  C         4.9442118905        1.4124774927       17.8225268905
  H        12.0971899993        0.4964988666       22.3273313680
  H        12.8653158438        0.6293559781       20.6577146643
  C        13.4232370042        2.2066108084       21.9789140801
  N         9.4566303438        8.4919577403       18.0430285983
  C        10.3539077348        8.4116386318       15.9579309424
  C        10.8359009965        6.2278089876       14.8832497614
  H        10.2592576721        4.3773864856       15.8577209124
  H         0.7106222966        6.9801977982       29.5212891637
  H         0.2322196942        5.7489156016       30.5058196647
  H         1.9515076388        5.9440472038       30.0762297026
  S         4.3995997799        1.7278457389       34.4529934458
  C         4.8650851144       -0.8683617220       35.2010667913
  H         5.1691527532        2.2247520387       17.1887565064
  H         5.5692921112        0.5905312747       17.4887938248
  C         3.6115963178        0.7457639429       17.5017292233
  H        13.0679900773        2.8006655488       22.8495835936
  H        13.7323436916        2.8581346871       21.1627827295
  C        14.6202710347        1.4292798050       22.4783216780
  S         9.3685368089       10.0895901284       17.4816797844
  N        10.1689527036        9.8193786391       16.1165745827
  C        10.8964167638        7.7335986566       14.8260702468
  H        11.2926844302        5.6193293474       14.0829668634
  C         4.4133564669        1.1675668712       36.1399947619
  N         4.6156879272       -0.1907674373       36.3267114611
  O         5.1153281658       -2.1196675949       35.0796321405
  H         3.3761878391        0.7437916741       16.4106187116
  H         2.8444065214        1.4024994989       17.9567900824
  C         3.3730915083       -0.5502064504       18.1739989472
  H        14.2984169456        0.5881510316       23.0792313673
  H        15.1180511577        0.8952427033       21.5841530556
  C        15.6933166063        2.3350791068       23.2310090596
  C        11.2871071514        8.5124278427       13.6709627994
  S         4.0654175330        2.1016681328       37.5537830823
  C         4.8789370181       -0.9167039162       37.5902111948
  H         4.0917943322       -1.3236770538       17.9518303047
  H         3.4401096302       -0.4890168646       19.2630192616
  C         1.9556203971       -1.0460400431       17.9603790521
  H        15.2666068790        2.8077529181       24.1818303124
  H        16.0397583205        3.2503799212       22.5954472161
  C        16.8623110843        1.5558359336       23.6192363225
  H        11.0548911400        9.5399587616       13.9269669659
  C        11.7072984524        8.2043234087       12.4140168922
  H         4.1962971392       -0.6248539428       38.4052914844
  H         4.5982568141       -1.9705981517       37.5155077972
  C         6.3584389792       -0.7980915014       38.0256574863
  H         1.1007615986       -0.3462334711       17.9896423248
  H         1.7611408767       -1.7980443033       18.7638453118
  C         1.8850125448       -1.8085649760       16.6346595357
  H        17.3470175796        2.0780603272       24.4124691209
  H        16.5483977591        0.5447046789       23.9070137038
  C        17.9065381811        1.5175359996       22.5487253847
  S        12.2407902716        6.6954254326       11.7752629238
  C        11.7476284056        9.3194410984       11.3801557404
  H         6.5262774339        0.0598529029       38.7335025783
  H         6.5638918986       -1.7031162964       38.5762741473
  H         7.1173894419       -0.4834488532       37.2983084995
  H         1.9941720470       -1.1641515256       15.7053536124
  H         1.0023522610       -2.3827511244       16.4416795027
  H         2.5584971028       -2.6235568770       16.6239757881
  H        18.2634265124        2.5512722748       22.1792812122
  H        17.5654968140        1.0381020689       21.6625543866
  H        18.7199078772        0.9519723287       22.9279888889
  C        12.4028163392        7.5053881835       10.2632883604
  N        12.1736940673        8.8574826549       10.2191081166
  O        11.5451528104       10.4802056031       11.6831517660
  S        13.4331618088        6.9642209354        8.8790972679
  C        12.2108720156        9.8116920495        9.0530944695
  H        12.5435325034       10.7724927665        9.3043043621
  H        12.9458338620        9.5433632156        8.2634573597
  C        10.8618306570        9.8840011362        8.4180484237
  H        10.8160954722       10.2568199008        7.4201935024
  H        10.4405634506        8.9021500860        8.3129511094
  H        10.1531761769       10.5180091586        8.9380721449
  H        -2.9175250276       15.1489175026       16.0248195520
  C        -2.9166004968       14.0376191911       16.0354533035
  H        -3.8814173766       13.5620292641       16.1845920372
  C        -1.9415506908       13.6696495762       17.1746585624
  C        -2.5113708537       13.5524842217       14.7202063837
  C        -2.4458695927       14.1031149084       18.5466964371
  H        -1.8649754371       12.5882617445       17.1593049746
  H        -1.0764708408       14.2511021066       16.8977925302
  H        -2.5697199295       12.5158300263       14.6424519986
  H        -3.1946201058       13.8997035993       13.9637610876
  H        -1.4958511199       13.7668902985       14.4462976270
  C        -1.3215892286       13.8600127901       19.6460548441
  H        -3.4035820615       13.6326077094       18.8154660450
  H        -2.7341585301       15.1479708104       18.5291827280
  C        -1.8241866364       13.8846390373       21.1060908574
  H        -0.9689024932       12.8486963871       19.5157866573
  H        -0.5111493531       14.5674824112       19.5575023080
  C        -0.9326148669       13.0470277102       22.1258013219
  H        -2.8773963588       13.6507214542       21.1376580948
  H        -1.8297122861       14.8825829738       21.4470814940
  C         0.3077030916       13.8804691295       22.4660189659
  H        -1.4243793452       12.8521521439       23.0460661983
  H        -0.7407378892       12.0403407294       21.7684468624
  C         1.3236276613       13.1239603024       23.3314239256
  H         0.8840578310       14.2209248294       21.6538782761
  H         0.0272075648       14.7870309938       23.0662737552
  C         1.5267110843       11.7873145214       22.5921514583
  C         0.9129946899       12.3871610924       24.5252040400
  C         2.6552831894       13.9084340237       23.4679769042
  C         1.4517002459       10.6833938694       23.4489173958
  C         1.9078510645       11.4176469254       21.2913114138
  C         1.0321427462       11.0634791238       24.7135518632
  C         0.5113352012       13.1043976446       25.6633087337
  H         2.8981811246       14.4830381100       22.5340945534
  H         2.6303527279       14.5818547985       24.2797361192
  C         3.9260980902       13.0866321337       23.7592312832
  S         1.9740055931        9.2723322790       22.7122327687
  C         2.0889810701       10.0885010725       21.2084279682
  H         1.9570803168       12.1076021822       20.5213445733
  C         0.6915748064       10.4983915919       25.8945569591
  H         0.5081478638       14.2100906963       25.6296968284
  C         0.1384989745       12.5131327317       26.8685386417
  H         4.1046951985       12.2447885611       23.0284034138
  H         3.8898096211       12.7139256595       24.8155257344
  C         5.1719066487       13.9380864760       23.7718943045
  C         2.3751426826        9.4227636816       19.9490265078
  C         0.2582020933       11.1713473345       27.0697216616
  H         0.7391634071        9.4605062545       26.0543639423
  C        -0.4216829085       12.9533354627       28.0953592604
  H         5.8869309206       13.5037796732       24.4632498525
  H         4.8809859581       14.9359123200       24.2068563257
  C         5.8086695709       14.1630112226       22.3467751159
  C         2.3885555263        8.0651305860       19.6610031504
  C         2.6838616204       10.2366895452       18.7570011201
  C        -0.2569142213       10.5074536446       28.3251103264
  C        -0.5163539547       11.8619446954       28.9535679819
  S        -0.7540051169       14.4519056491       28.8806941734
  H         6.5446002076       15.0061342179       22.4280040282
  H         4.9674018988       14.5450867258       21.7877005759
  C         6.5762652374       12.9394920477       21.8995816780
  N         2.1820101239        7.0806717781       20.5997738072
  C         2.8000192541        7.5368739504       18.4538718259
  C         2.9521996495        9.7361456679       17.4999649820
  H         2.7638139133       11.2821037089       18.9018452776
  C         0.8694544976        9.7025754235       29.0586903764
  C        -1.6042400347        9.7181994146       28.1126420199
  C        -0.9400599630       12.2402753092       30.2224301547
  C        -1.1443418122       13.6000869858       30.4199068825
  H         7.4139736296       12.7631960964       22.5476410730
  H         5.9261837508       12.0690249691       21.9229250810
  C         7.1553950855       13.1877656108       20.5306129410
  S         2.2861594612        5.5394057497       19.9047261788
  N         2.6877883568        6.0869887434       18.4191160949
  C         3.0809670801        8.2579420906       17.2876471980
  H         3.1046720801       10.5054437257       16.7556552950
  H         1.0257223451        8.7841620297       28.4434965388
  H         0.4672826864        9.2458174045       29.9567986923
  C         2.2034189799       10.4677042661       29.3139523540
  H        -1.3127001281        8.9129188786       27.4566367216
  H        -1.9229858862        9.2102039679       29.0013010119
  C        -2.7852403820       10.6747998886       27.5578770617
  H        -1.0407141783       11.5389622983       31.0155477490
  C        -1.4354447197       14.3094571535       31.7166074646
  H         7.6852409540       12.3109495479       20.2179703856
  H         8.0326259287       13.8626757819       20.5602247005
  C         6.2226522671       13.4705629945       19.3684267993
  C         3.4364833057        7.5713682852       16.1215633714
  H         2.6017137696       10.8073925402       28.3971649346
  H         2.1745281249       11.3790184780       29.9111626764
  C         3.2094359262        9.6117101708       30.0020795537
  H        -2.3671296773       11.1277788098       26.6636998604
  H        -3.1023837206       11.4702998622       28.2594515080
  C        -4.0114695158        9.8858043754       27.1354808581
  C        -1.5539584835       15.7203619986       31.8378015283
  C        -1.6402231578       13.4674228636       32.9550261606
  H         5.3853476171       12.7785861368       19.3017250246
  H         5.6838643125       14.3604007283       19.5726706500
  C         6.9509435330       13.5871611111       18.0131138699
  H         3.3550942169        6.4843455964       16.1627846074
  C         3.7337040361        8.0520706340       14.8643574343
  H         3.0706599804        8.6053098921       29.6055208712
  H         3.1200269906        9.5400497299       31.0907380429
  C         4.6858660808       10.0833564426       29.8363062147
  H        -3.7820314360        9.2738362708       26.2993819980
  H        -4.2980116752        9.1940520596       27.9791993407
  C        -5.1709595780       10.7821253328       26.7418827672
  N        -1.3460181659       16.6187342212       30.8007030603
  C        -1.8486766072       16.3192099184       33.0375824643
  C        -1.9997569895       14.1355876984       34.1228174395
  H        -1.5736766582       12.4010478321       32.9165656398
  H         7.1510758099       14.5584284352       17.6999281209
  H         7.9324013292       13.0945008140       17.9368894176
  H         6.3265896567       13.1140777758       17.2589702214
  S         4.0268480437        9.7383838157       14.5226837831
  C         3.8702844374        7.1022545637       13.7543278626
  H         5.1083869374        9.8109679543       28.8193489008
  H         4.8211309074       11.1677395246       29.8173543432
  C         5.7410073616        9.5431955370       30.7730851122
  H        -4.8761750532       11.2180904228       25.8037011769
  H        -5.3561607390       11.5369665837       27.5347778338
  C        -6.5522067311       10.0197627634       26.5848849392
  S        -1.4593863878       18.1203822320       31.4044803867
  N        -1.9183317547       17.6850348282       32.9382339078
  C        -2.1197973897       15.6048597486       34.2197014492
  H        -1.9548330115       13.4798283481       35.0304048482
  C         4.3952082447        9.1192936568       12.8265664513
  N         4.3532593172        7.7614724978       12.6936369392
  O         3.7322063532        5.9056873208       13.8647071451
  H         5.3606930336        9.4659469919       31.7671974967
  H         6.4789963371       10.2757710782       30.8005247385
  C         6.4443447815        8.3295810523       30.2990286500
  H        -6.3907520807        8.9523782313       26.7092986660
  H        -7.1293651237       10.2487250038       27.4148424384
  C        -7.2677498847       10.4442417591       25.2843650994
  C        -2.3274711021       16.2960761604       35.4510360153
  S         4.8521186950       10.0904301892       11.3858730955
  C         4.6724894901        6.9453449214       11.5169721739
  H         6.8003023772        8.3077577159       29.2463017375
  H         7.3262075016        8.1237171613       30.8711031145
  C         5.6908665853        6.9941064433       30.4861696179
  H        -6.6024300534       10.3807961252       24.4119019784
  H        -7.6037133187       11.4941600964       25.3469693293
  C        -8.6234467713        9.7731475853       24.9841452632
  H        -2.1419038285       17.3263661624       35.4382088122
  C        -2.9808694743       15.9533081764       36.5939036414
  H         5.5222114153        7.4427441623       11.0282077107
  H         5.0279799411        5.9190775782       11.7681411302
  C         3.4326597243        6.8629235587       10.6294580093
  H         5.9688187203        6.3099862747       29.7051492786
  H         4.6001869147        7.1131152504       30.2856332390
  C         6.1420577131        6.4214887456       31.8914374174
  H        -8.9467848570       10.3492079709       24.1566580640
  H        -8.2459430828        8.8202454361       24.6226588678
  C        -9.5212691600        9.7018677334       26.2228521869
  S        -3.6631392590       14.3869313139       36.9241804597
  C        -3.0731540849       16.9886104239       37.6698299877
  H         3.5927172400        7.4620788712        9.7327809869
  H         3.2066799122        5.8680613285       10.3126372071
  H         2.6053829223        7.3067166639       11.1622252215
  H         5.9284285764        6.9916433138       32.7094447973
  H         7.2157734089        6.2777661183       31.8253584571
  H         5.8275206703        5.4223920737       32.1434798516
  H        -9.5932214472       10.6717735651       26.6536802009
  H        -9.1508839321        8.9546281730       26.9816915466
  H       -10.5496327869        9.4382281942       25.9657920980
  C        -4.0663796984       15.0764643136       38.5004865949
  N        -3.6622076555       16.4391838666       38.6704810859
  O        -2.5524610122       18.0670133485       37.5955724972
  S        -4.7159842144       14.0956860576       39.6846001542
  C        -3.8959146562       17.2125393201       39.8175597279
  H        -4.4266424416       18.0929600106       39.4990223973
  H        -4.5441637716       16.7767913336       40.5274793617
  C        -2.6934911138       17.5379167080       40.6557634338
  H        -2.7503511617       16.7832958624       41.4406710113
  H        -1.7539218487       17.6043563192       40.1400354321
  H        -2.8721616036       18.4828180603       41.0637097298
