352
 i =    97400, time =    97400.000, E =        24.9472021569
  H        10.2838343916        5.1053072438       31.8860397234
  C        10.2521613324        6.0707225374       32.2412423463
  H         9.3930127217        6.2365530702       32.8560208901
  C        10.1686250034        7.1147100770       31.0197174638
  C        11.4874191502        6.2877508872       33.1580453680
  C        10.9469623791        6.5365484357       29.7874902969
  H         9.1120381033        7.2291462180       30.7428156597
  H        10.5566304763        8.0787655505       31.2847067795
  H        11.5523992519        7.3077146342       33.5943292416
  H        11.4024211786        5.5795328000       33.9424180127
  H        12.3665900951        6.0044439905       32.6148567972
  C        10.0183852368        5.8508643626       28.7829043701
  H        11.6138415300        5.7546927299       30.2142985588
  H        11.6678614585        7.1518293435       29.2838172153
  C        10.4924728787        5.8841779649       27.3710162373
  H        10.0671645623        4.8682117804       29.1555905583
  H         9.0385742293        6.3216501744       28.9574920503
  C         9.5633535413        5.1902197226       26.3567240238
  H        11.4235242909        5.3079003583       27.2038177161
  H        10.7198094388        6.8478371994       26.9771213229
  C         8.3696955045        6.0206169542       25.9441798058
  H         9.9823206586        4.9016450643       25.4814717400
  H         9.1858298489        4.3131545721       26.8789800557
  C         7.3186331407        5.1489322362       25.2395727728
  H         7.9294917267        6.4796117466       26.8037385265
  H         8.6877053311        6.8043395828       25.2772299299
  C         6.8995553728        3.8756657023       25.9550564248
  C         7.8682756732        4.4503333943       24.0483052263
  C         6.0421882295        5.9780492175       24.8232714821
  C         7.0812640462        2.7660315538       25.1615674185
  C         6.3987823361        3.5745710641       27.2229643445
  C         7.7182905934        3.0878452538       23.9693238599
  C         8.4243863848        5.0485514532       22.9600212985
  H         5.4725023669        5.3143489422       24.1063134536
  H         6.3158633243        6.8207882759       24.3259553938
  C         5.0150652368        6.2934740487       25.8714745569
  S         6.6917317775        1.3018328876       25.9758088668
  C         6.1935722147        2.1781980540       27.3929349517
  H         6.2695078232        4.3975838191       27.9165107819
  C         8.1224515834        2.4093536905       22.8347333828
  H         8.5306350977        6.1673423491       23.0837794042
  C         8.7493538817        4.4330696206       21.8196803330
  H         5.2915476894        6.2501151422       27.0046776448
  H         4.7945657652        7.3606058133       25.6776803380
  C         3.6572174861        5.5399042736       25.5799163521
  C         5.8641015898        1.5314082585       28.6822457666
  C         8.5909206292        3.1029439333       21.6507023748
  H         8.1769785375        1.3271598714       22.8040992764
  C         9.0962595018        4.8291554429       20.5512267448
  H         3.8877792886        4.4692418043       25.7206150222
  H         3.3522454276        5.7910689897       24.5560503653
  C         2.5402553179        6.0045344172       26.5275933593
  C         5.9539286810        0.1627953724       28.9546903283
  C         5.7019857143        2.3416079146       29.8701513040
  C         9.0478460305        2.4089995777       20.4691069812
  C         9.2421990387        3.7469862123       19.7343521537
  S         9.4415165556        6.2477235742       19.8323218542
  H         1.7059262277        6.1389802378       25.7986468044
  H         2.7867455426        6.9939677365       26.9627231109
  C         2.2793838585        4.9491892349       27.5629270509
  N         6.4376500043       -0.7857466096       27.9981706771
  C         5.7035777802       -0.3879856572       30.2112752257
  C         5.3285333558        1.8210974964       31.1372198293
  H         5.9073260621        3.3848113683       29.7963760937
  C         8.0012370564        1.5513970729       19.8832037542
  C        10.3822919491        1.7098849229       20.7310867721
  C         9.6483267133        4.1699647061       18.4336324536
  C         9.8378846961        5.5016357828       18.2916396778
  H         2.0892270401        3.9692801977       27.0909590186
  H         3.2061794440        4.7806564422       28.1652095966
  C         1.0756775821        5.1435499234       28.4447380138
  S         6.5193454770       -2.2312116143       28.6694067696
  N         5.8869248851       -1.8338588758       30.1699238675
  C         5.3336403438        0.3025755297       31.3620182070
  H         5.2480286838        2.5168480098       31.9653809721
  H         7.7502733801        0.7809680186       20.5837540850
  H         8.3785484256        1.0254080650       18.9905543929
  C         6.7072086574        2.3520573727       19.5066962317
  H        10.7079299771        1.2677527113       19.8506350938
  H        10.2161436127        0.8410551373       21.3834416390
  C        11.4361232148        2.6378825862       21.3085361277
  H         9.5733838172        3.4800161444       17.6282545781
  C        10.2314949460        6.2381383850       17.0660207503
  H         0.6437167960        4.2239442872       28.7104046367
  H         0.2809828044        5.6227634357       27.8256434119
  C         1.2039825606        5.9595411466       29.6782529199
  C         5.1167085581       -0.4059982175       32.6282065041
  H         6.9627735089        2.8890083333       18.6802249756
  H         6.2916989564        3.0570789471       20.2284606738
  C         5.6426553241        1.4500346345       19.0147326557
  H        11.2769500191        3.0317112420       22.3391222790
  H        11.5117479163        3.4947691272       20.7247213662
  C        12.8331140766        2.0227430926       21.2383086870
  C        10.4240403026        7.6096239505       17.0007034300
  C        10.4300826485        5.4363954927       15.8701291259
  H         2.1108404855        6.5513295333       29.5443800011
  H         0.3152893147        6.5947194431       29.8579401431
  C         1.5316338045        5.1194897337       30.8632877806
  H         4.8562164341       -1.4392299278       32.4667677343
  C         4.9159099510       -0.0865886364       33.9416662750
  H         5.1270251219        1.0438390270       19.9655308004
  H         6.1964906076        0.5963564017       18.4895676673
  C         4.5515696434        2.0626136716       18.1494398970
  H        12.6846890040        1.1905632573       21.8992542933
  H        13.1940092962        1.6635777895       20.3086899303
  C        13.9819888739        2.8619732077       21.8519041609
  N        10.1519310971        8.4575219019       18.0739271531
  C        10.7347808518        8.2621310397       15.8141504098
  C        10.9038646387        6.0269355416       14.7121933327
  H        10.1715152741        4.4441515272       15.9421715231
  H         0.6627301119        4.6419549018       31.3204478192
  H         2.3237290465        4.3975766354       30.7780025770
  H         1.9821187945        5.8004264980       31.6020003077
  S         4.6940307724        1.4945458547       34.4616251095
  C         4.8368087266       -1.1376396388       35.0426034394
  H         4.3731216544        3.0339006508       18.5380609220
  H         4.8144526544        2.1850935576       17.0840477694
  C         3.2841868827        1.1433741824       18.0767857345
  H        13.6523616566        3.2914820674       22.7313655943
  H        14.1882339181        3.7528565419       21.1085370167
  C        15.2499393867        2.0961714351       21.9231962647
  S        10.3090523489        9.9525322101       17.4887944875
  N        10.6887247996        9.6573979007       15.9256452826
  C        11.0187105777        7.5184219978       14.6042282601
  H        11.0328038847        5.4166411368       13.8209545920
  C         4.5425501994        0.8178986092       36.1190628349
  N         4.6112191723       -0.5285001911       36.1976832624
  O         4.9761201074       -2.3749650438       34.8868104464
  H         2.5483425530        1.7194380396       17.5988476160
  H         3.1295029542        0.9489579322       19.1394938220
  C         3.5109796512       -0.0875728920       17.2351679507
  H        15.0103112791        1.0951264339       22.0308180207
  H        15.8219382220        1.9959229431       20.9840504359
  C        16.0347293545        2.5074954506       23.1916620174
  C        11.3181296877        8.3332825705       13.4793580145
  S         4.1789352452        1.6373363674       37.5978367364
  C         4.6011599944       -1.3262411726       37.4550673099
  H         3.6653188238        0.1663472819       16.2356644938
  H         4.3286426570       -0.5382060381       17.7268760067
  C         2.2161031276       -0.9664147124       17.2764243486
  H        15.4198848801        2.3289692064       24.0841013669
  H        16.3118841564        3.5191493810       22.9546477014
  C        17.3722253085        1.8292843915       23.4805230780
  H        11.2674313358        9.3729011602       13.6172261407
  C        11.8983909383        8.0227363026       12.3233658378
  H         4.0576275175       -0.9338959190       38.2733922759
  H         4.2567093873       -2.3325726110       37.0999117987
  C         6.0096523557       -1.6597989763       37.8738944473
  H         2.3510684205       -1.6803227232       16.4616907858
  H         1.3932028323       -0.3525505665       17.1151683242
  C         2.1660352885       -1.7006527472       18.6027545456
  H        17.9304521609        2.5171371073       24.0853921874
  H        17.2305562513        0.8211378884       23.9556209621
  C        18.1567564912        1.6281778626       22.1488895213
  S        12.3277019136        6.5221449671       11.8311360158
  C        11.8691015225        9.0642066647       11.1892410445
  H         5.8505154995       -2.3865862748       38.6193502983
  H         6.3372269363       -2.2409299326       36.9934143857
  H         6.5477021876       -0.7357795551       38.1673310973
  H         2.0150817794       -1.0793774386       19.5309396169
  H         3.0693165790       -2.2297593138       18.6213139464
  H         1.3044283067       -2.3123122763       18.5574655543
  H        19.2170124695        1.3499722180       22.2508381403
  H        18.2540841687        2.5158413368       21.5211345641
  H        17.5823400668        0.8606533624       21.5647208507
  C        12.7474333882        7.2719770501       10.2463932843
  N        12.4703791167        8.6058628852       10.1173529874
  O        11.4566503446       10.2230653043       11.2968913567
  S        13.4214571988        6.3531910145        8.8863581507
  C        12.7665483393        9.3326636123        8.8675133747
  H        12.8239170989       10.4358768496        9.0924833881
  H        13.7319544446        8.9160057091        8.5608303684
  C        11.6351763030        9.0287609925        7.8656869996
  H        11.6654096608        9.8356919265        7.1323704266
  H        11.5329201717        8.0474259789        7.4246273949
  H        10.6777600006        9.2578471487        8.3679570626
  H        -1.5493707720       12.5700770407       17.2862996729
  C        -1.5541895776       13.6097820980       16.9530042587
  H        -0.5237962655       13.9399046178       16.7790868603
  C        -2.1180293415       14.4701985263       18.0116108610
  C        -2.3778450165       13.5662087045       15.6806030403
  C        -2.4200467033       13.5847012916       19.2625845669
  H        -1.4405341536       15.1936250432       18.2863330566
  H        -3.0655746015       14.8857643323       17.7519060884
  H        -3.4209464378       13.7560984525       15.7520275313
  H        -1.9753572795       14.3582512331       14.9862408735
  H        -2.2727910449       12.6066619368       15.1704892884
  C        -1.2828353692       13.5964517891       20.2658394326
  H        -2.7693462303       12.5103559738       18.9629604422
  H        -3.2850753746       13.9166374219       19.7849864917
  C        -1.8735967761       13.4361387402       21.7226873489
  H        -0.6320100054       12.8194984844       20.0031471487
  H        -0.7293442976       14.5410258434       20.2327939246
  C        -0.8986200785       12.7747887311       22.5815219285
  H        -2.6818892089       12.7602935751       21.7135430940
  H        -2.3473688738       14.3963172016       22.0715271150
  C         0.2102365337       13.6909806143       22.9176243624
  H        -1.4055727070       12.3931048852       23.4465268268
  H        -0.5509312397       11.9264685117       21.9595732152
  C         1.3541951904       12.9544870483       23.5597681047
  H         0.7020103255       14.1001888333       21.9912226928
  H        -0.1051480352       14.5746009739       23.5154787976
  C         1.7879837223       11.5938558399       22.8874748157
  C         0.9099068501       12.1902370362       24.7118727691
  C         2.4917297460       13.9598789402       23.8473925680
  C         1.6769908596       10.4734524885       23.7239244184
  C         2.1358425932       11.1308903297       21.5835811710
  C         1.1192864748       10.8598242761       24.9263876601
  C         0.3764550096       12.9044995761       25.8602644594
  H         2.1199201387       14.8879190839       24.4071501435
  H         3.0075612469       13.3657358464       24.5689691939
  C         3.4745162263       14.2123948094       22.6911621150
  S         1.9695612616        8.9764546443       22.9452387808
  C         2.3690111904        9.7831409166       21.5086803464
  H         2.1939214388       11.8002430336       20.7672391879
  C         0.7482903486       10.2538298614       26.0276169562
  H         0.2509890322       13.9279175234       25.7713044347
  C        -0.0002538969       12.2293256133       27.0078066190
  H         3.1501112975       15.0851635993       22.1878069349
  H         3.4903273529       13.4067169446       22.0057858729
  C         4.8703094507       14.4617129220       23.3484490206
  C         2.7814775836        9.0666438595       20.2564981246
  C         0.2216422204       10.9185844067       27.1387048237
  H         0.8002873238        9.1469356633       26.0745646514
  C        -0.4025084078       12.6068320335       28.2732828190
  H         5.0757646863       13.6857688089       24.0438635936
  H         4.8058748899       15.4386333023       23.8373343907
  C         6.0720337386       14.4629501661       22.2801223356
  C         2.6802134479        7.6949635378       19.9900429914
  C         3.2137454828        9.8507652059       19.0758186209
  C        -0.2439897312       10.1821342989       28.3970659268
  C        -0.5722459098       11.5208979066       29.1327213432
  S        -0.7768476855       14.0984600909       29.0070047052
  H         6.9050279850       14.7896612944       22.8744619123
  H         5.9349826686       15.2056316601       21.5140891415
  C         6.3026832751       13.0571323659       21.7051279971
  N         2.3217397975        6.7534655057       20.9415134179
  C         2.9372501393        7.1076430489       18.7615685268
  C         3.4847346922        9.3019368191       17.8297936772
  H         3.3866261546       10.8616423675       19.2424884541
  C         0.8973911114        9.3853264391       29.1341060189
  C        -1.4781719681        9.3405888765       27.9751166491
  C        -0.9605489671       11.9270443234       30.4307339427
  C        -0.9916924708       13.2963860306       30.5466254869
  H         7.3637858658       12.8017863591       21.9417371595
  H         5.6424278118       12.3299181108       22.0390583060
  C         6.2305481821       13.1892097768       20.1696788890
  S         2.2757705257        5.2295356733       20.2381448404
  N         2.7388403821        5.6976661602       18.7662015130
  C         3.3341299836        7.8447573824       17.6703256018
  H         3.8965878585        9.9299130735       17.0462914180
  H         1.2508877286        8.5955461623       28.4988215088
  H         0.5978296524        9.0076013414       30.0852459607
  C         2.1904763949       10.2020818369       29.3346847266
  H        -1.1961472016        8.4943157566       27.3312367046
  H        -1.7548105684        8.7503835932       28.8220374348
  C        -2.6297153031       10.1035990863       27.3738538052
  H        -1.1310321682       11.1439885306       31.1784131275
  C        -1.0832612233       14.0909898675       31.8438042742
  H         5.4279758520       13.7793729577       19.7937301686
  H         5.9973607635       12.2384599094       19.7077835225
  C         7.4902057300       13.7639792970       19.5080673780
  C         3.6588125694        7.0698726006       16.5287859160
  H         2.6015239830       10.4140995150       28.3875501050
  H         2.0546287524       11.2155096801       29.8431035323
  C         3.2001333123        9.2720361228       30.0612142151
  H        -2.4991272566       10.4693382591       26.4071080693
  H        -2.7804962888       11.0766586662       27.9677710802
  C        -3.9613995308        9.3565419500       27.4077815285
  C        -1.2763704276       15.4984808539       31.9210505485
  C        -1.2564790923       13.4185805300       33.1116223719
  H         7.3830346248       14.7943240304       19.8343116829
  H         8.3364505799       13.2689354804       19.9554813869
  C         7.4175990961       13.6549617816       17.9583939658
  H         3.3467109709        6.0527133869       16.4256445304
  C         4.0397261320        7.4704890055       15.2642013325
  H         3.2220356428        8.3555084388       29.4421390786
  H         2.9599949776        8.9247796902       31.0736729746
  C         4.5903635800        9.8896426176       30.0954060673
  H        -3.9081544628        8.7670011220       26.4969881343
  H        -4.0399101507        8.6547524695       28.2359796340
  C        -5.0272358605       10.4595697138       27.4576468026
  N        -1.2684637520       16.3444983794       30.7913993522
  C        -1.4759859717       16.2142564357       33.0798362151
  C        -1.5903428145       14.1005886787       34.2606991207
  H        -1.1513541341       12.3748405139       33.1161606517
  H         8.1318439813       14.3734728817       17.5571879091
  H         7.6421597855       12.6601868114       17.5572614117
  H         6.4144867203       13.9235627565       17.7092785062
  S         4.4592649093        9.0857072076       14.7626594557
  C         3.9419782291        6.4711234206       14.2402513800
  H         4.9717438415       10.2878172239       29.0790509685
  H         4.5674020587       10.7914100788       30.6552755560
  C         5.6838318404        9.0390586418       30.6987667038
  H        -4.7246879936       11.2783475338       26.8475728782
  H        -5.2770870924       10.6544028561       28.5221783500
  C        -6.3654094375        9.8139387431       26.9676970055
  S        -1.3878686640       17.8942500163       31.2970765405
  N        -1.5937678678       17.6052644759       32.9120348376
  C        -1.7507752364       15.6078374001       34.2918972585
  H        -1.7353124723       13.5700349506       35.1936757251
  C         4.6161954806        8.3375992328       13.1798983967
  N         4.3174525916        7.0218334693       13.0907827395
  O         3.7887436485        5.2573232786       14.3765978882
  H         5.5098355296        8.8802306164       31.7145060523
  H         6.6461276761        9.5403790083       30.6046128120
  C         5.8699637299        7.6670798409       30.0132350389
  H        -6.2774506254        9.0510477278       26.1374343440
  H        -6.8218864999        9.4498617679       27.8726240100
  C        -7.3210713020       10.8384226955       26.2830616227
  C        -1.9715538150       16.4317697675       35.4455236021
  S         4.8957350483        9.2041042523       11.6199881500
  C         4.2836493935        6.2921912507       11.8039411080
  H         5.5553565669        7.7519867631       28.9768747708
  H         6.9393083615        7.5655160619       29.8634624545
  C         5.1866333109        6.4696234653       30.6864466177
  H        -6.9172396224       11.2949521502       25.3472688004
  H        -7.4777874092       11.6158520890       26.9979064090
  C        -8.6061188698       10.1604578582       25.7986695301
  H        -1.5961453095       17.4525773682       35.3609316043
  C        -2.4533461685       16.1590883786       36.6890833178
  H         5.0249046484        6.6342394785       11.0370974468
  H         4.4065729676        5.2240330976       11.9972254901
  C         2.8911176597        6.4013241417       11.1421287151
  H         4.9968781973        5.6550349497       29.9532820337
  H         4.2102373032        6.8188883394       31.0386244520
  C         6.0218258272        5.7783055086       31.7946657802
  H        -8.7403857335        9.2303258699       26.3708009793
  H        -9.5387310775       10.7778995467       25.9146306230
  C        -8.4593939757        9.6293298893       24.4392986953
  S        -3.0258339763       14.6588427720       37.3619948307
  C        -2.4266679369       17.3170938443       37.6478902505
  H         1.9822257513        6.4169882843       11.7696652505
  H         2.8075428534        7.4123939781       10.6919227701
  H         2.8155702538        5.7123927164       10.2760689371
  H         5.2452847261        5.3578297701       32.3969145090
  H         6.5360345084        6.4269274343       32.5057126011
  H         6.6289622857        4.9369391324       31.5410563825
  H        -7.5297554868        9.1132297373       24.2328699052
  H        -8.4585832973       10.4916473546       23.7152729309
  H        -9.1958181369        8.9372384416       24.1551530151
  C        -3.3517981539       15.5398784805       38.7716539989
  N        -2.9723473129       16.8430488249       38.7699890695
  O        -2.1316555426       18.4736442231       37.4664847640
  S        -3.9837557088       14.8383112231       40.2888921361
  C        -3.1475388559       17.6907327247       39.9730642936
  H        -3.3075049652       18.7181063108       39.4977532822
  H        -3.9605053301       17.2855203055       40.5308204388
  C        -2.0151978542       17.6687366723       40.9390940773
  H        -2.0524013991       16.8067446572       41.5792150851
  H        -1.0435230739       17.6046579037       40.4453004467
  H        -1.9995785653       18.5496525491       41.5387949491
