352
 i =    48500, time =    48500.000, E =        24.9489796653
  H        11.2452790331        7.2933522197       32.2405424760
  C        11.2013511241        6.2090107542       32.2970623423
  H        12.2622853752        5.8560197263       32.1940260254
  C        10.2973069791        5.5860781121       31.2149395846
  C        10.8597744678        5.9189327546       33.7508196928
  C        10.4093540117        6.3408491712       29.9314109328
  H        10.7756981807        4.5988495211       31.1045617003
  H         9.2256025602        5.3909044981       31.4632605617
  H        11.3494846703        6.5692932548       34.5303556498
  H         9.7547817403        6.0666317598       33.7321776988
  H        10.9133395619        4.8087601902       34.0921597664
  C         9.8529250784        5.3065624125       28.9266610716
  H        11.4522229978        6.5560246583       29.7444773437
  H         9.8275676322        7.2438983141       30.0329893713
  C        10.1442287345        5.8850933336       27.5271909868
  H        10.4065448977        4.4224828934       29.0682876548
  H         8.8225650045        5.0650622620       29.2339082347
  C         9.3428385775        5.1739744049       26.4284615281
  H        11.2116233170        5.8711842620       27.3098151371
  H         9.9137595211        6.9460394542       27.5300196356
  C         8.1262474488        5.9545288850       26.1371701506
  H         9.9017348367        5.0735015183       25.5241541867
  H         8.9811451185        4.2396853673       26.7904328753
  C         6.9412858793        5.1600712660       25.4022655788
  H         7.7691131916        6.4067474762       27.0765857407
  H         8.3719947837        6.7527153260       25.4900912821
  C         6.5943787251        3.8253561254       26.0539794124
  C         7.4604790143        4.4638422250       24.1591967227
  C         5.7148185540        6.0524176499       25.1305401282
  C         6.8118453374        2.7640832408       25.2357583230
  C         5.8582201719        3.5346853295       27.2479240658
  C         7.4058822480        3.0911089720       24.0052540682
  C         7.9770550640        5.1535833552       22.9889873939
  H         5.9911510252        6.9044276907       24.4881979052
  H         5.3547340604        6.4883885877       26.0627326205
  C         4.4566565891        5.4167907699       24.5765058060
  S         6.3333808364        1.3602362698       25.9607941317
  C         5.7124842478        2.1623466532       27.4126958710
  H         5.4635626129        4.3853126806       27.7689108130
  C         7.9148523145        2.4843279608       22.8524113284
  H         8.0589020984        6.2237911788       23.0693041500
  C         8.4016675341        4.5282297867       21.8903163879
  H         4.7068130273        5.0867405718       23.5176496042
  H         4.1529085048        4.5700387819       25.1314890306
  C         3.2249566777        6.3833523456       24.4766927275
  C         5.3081119860        1.4942956957       28.7060020933
  C         8.4453571574        3.1928911666       21.7504150897
  H         7.8787444601        1.3544697025       22.7834334078
  C         8.9077205153        4.8744895806       20.6232770137
  H         2.6276292816        5.7598082041       23.8700576248
  H         3.4474886316        7.2756090624       23.9081966076
  C         2.4435014326        6.7055989392       25.7802645831
  C         5.4617148762        0.1237556611       28.9736595507
  C         5.0285870326        2.3409675845       29.8591615106
  C         9.0014311361        2.4347598274       20.5356382314
  C         9.2936035986        3.8055726850       19.8258526922
  S         9.1344189556        6.3610966588       19.7650787199
  H         1.5813108389        7.3069702875       25.6712795328
  H         3.0667610951        7.1183373792       26.5332728632
  C         1.8386962273        5.4787317435       26.5500220861
  N         5.5901192594       -0.8554802542       27.9405680213
  C         5.3581969141       -0.3803923500       30.2630048836
  C         4.9985932880        1.8467012038       31.1489945654
  H         4.8422246520        3.3625241835       29.7508338792
  C         7.9026414501        1.6616140181       19.8462102380
  C        10.1226596912        1.5504683355       20.9295151010
  C         9.8524376143        4.1289700839       18.5975097207
  C         9.8562096648        5.4928212718       18.5051059207
  H         1.2486091341        4.9746894096       25.8564593489
  H         2.5537731782        4.7139749335       26.6644492544
  C         1.0844416340        5.6045826584       27.8477258264
  S         5.9010381208       -2.2336953702       28.7053680971
  N         5.6659187880       -1.7437095375       30.2751299886
  C         5.1114525721        0.3905467021       31.4061668299
  H         4.5373540456        2.5114595761       31.8528238648
  H         7.4812077137        0.7637762769       20.3904739348
  H         8.3631219082        1.2540336578       18.9573609280
  C         6.6365517619        2.5151228777       19.4647759397
  H        10.0447336742        0.5743916767       20.3413798050
  H         9.9472335243        1.2310646477       21.9821747482
  C        11.5529352725        2.2000406184       20.8197333609
  H        10.1882792618        3.3899223568       17.8813067588
  C        10.2495957700        6.2540551795       17.2777681845
  H         0.5355607214        4.6797230981       27.9396413997
  H         0.3553677574        6.3981129827       27.7639947493
  C         1.9897861778        5.8546171439       29.0713070953
  C         5.0150878029       -0.2907449193       32.6717102793
  H         6.9277836937        3.2310659157       18.7645195621
  H         6.3675983585        3.0499728879       20.3699386772
  C         5.5655057471        1.6923195427       18.8069577267
  H        11.5025222062        2.8322279574       21.6960775771
  H        11.5891772304        2.7144431662       19.8809696963
  C        12.6628762725        1.2162719711       20.8515285195
  C        10.2152390139        7.6466431537       17.0800404287
  C        10.5288119429        5.4504720820       16.0094022237
  H         2.9685649677        5.2609845519       28.9474249343
  H         2.4321365451        6.8194907171       28.9729086515
  C         1.2552238733        5.7576774274       30.3619214966
  H         5.3603751672       -1.2818446525       32.6853952120
  C         4.5657073705        0.1387846017       33.9657084225
  H         5.1226258960        1.0135664589       19.5802514478
  H         5.9985952432        1.0489886868       18.1467134818
  C         4.5273512288        2.5098371763       18.0764219724
  H        12.6719414774        0.6951053578       21.7846478981
  H        12.3263635471        0.4859581121       20.1619710820
  C        14.0323650742        1.7518300107       20.5493030613
  N        10.0484714978        8.6007591515       18.1349263559
  C        10.4625364269        8.1988504405       15.8574204835
  C        10.7658351813        6.0718010214       14.7508751191
  H        10.5995648891        4.3177405263       16.0212392217
  H         0.4157217093        5.0117405052       30.3893210508
  H         1.9431393413        5.6155157655       31.2065334401
  H         0.8708710733        6.7236726759       30.6187153496
  S         4.1805925924        1.7461469026       34.4639733765
  C         4.7413490888       -0.8627480006       35.1008520205
  H         4.3426961091        3.4233671867       18.6817203222
  H         5.0187879828        2.9745376919       17.1808072679
  C         3.2698068417        1.7657828349       17.7778564880
  H        14.0367959752        2.1372822284       19.5269121119
  H        14.7233299866        0.8869719612       20.4342537178
  C        14.5490024540        2.7825076469       21.6447450800
  S        10.2541037806       10.0587289533       17.4377155806
  N        10.6610848635        9.5638207812       15.9246931804
  C        10.7259321787        7.5329153612       14.6265812350
  H        10.9138222562        5.4250774187       13.9511845762
  C         4.1962655125        1.1404991713       36.1529353815
  N         4.3902555048       -0.2332182047       36.2334218666
  O         4.8850097238       -2.0608070977       34.8699211413
  H         2.8579140632        2.1038607247       16.8137181215
  H         2.4720549193        1.9077484591       18.4526581954
  C         3.4192391412        0.1969819033       17.7029363972
  H        15.4183047924        3.3138542183       21.2379270659
  H        13.8300543057        3.4375057045       21.9625360913
  C        15.1141653060        2.0079243360       22.8055234500
  C        10.9604725366        8.3034019062       13.4272398696
  S         3.8057987607        2.1286288791       37.5110589594
  C         4.5088015312       -0.9573278501       37.5201038551
  H         4.3283418611       -0.1057250438       17.1285156003
  H         3.4114308021       -0.0757431731       18.7521338152
  C         2.2068588689       -0.5291981743       17.0790982140
  H        15.5377610758        1.1285436110       22.3801846971
  H        14.3902603996        1.5709158846       23.5054763766
  C        16.2903398864        2.6752374351       23.6195470920
  H        10.7190854119        9.3494550392       13.5702875745
  C        11.4235781619        7.8949911879       12.1659789907
  H         4.0020291572       -0.2906102788       38.2668982576
  H         3.8987996638       -1.8558504955       37.4432231184
  C         6.0116971153       -1.2011883066       37.7579292172
  H         2.6646836836       -0.9951294647       16.1992107758
  H         1.4435510907        0.1557059627       16.7038912344
  C         1.5823723868       -1.6030766478       17.9267473178
  H        16.2078276308        3.7606251076       23.7505251012
  H        16.3408777407        2.2592215520       24.6215894891
  C        17.6033735742        2.3252119044       22.9414520634
  S        11.9795261240        6.3175452972       11.6609558646
  C        11.5122918777        8.9731898451       11.1724773193
  H         6.0332104915       -1.3065302057       38.8062978089
  H         6.3967366439       -2.0959643385       37.1883334784
  H         6.5797944584       -0.3686318596       37.3357328432
  H         0.9722998915       -1.1372211503       18.6488380472
  H         2.2061105103       -2.3322547828       18.4556378570
  H         1.0408007144       -2.3346427747       17.2438132933
  H        17.7894008812        1.2729001885       23.0184925316
  H        18.5151759042        2.8302523512       23.3019315420
  H        17.4216087847        2.6198075245       21.9239998215
  C        12.4420443630        7.1466871259       10.1563606374
  N        12.1514620624        8.4727970029       10.1070039023
  O        11.0359069476       10.1333341972       11.2890888512
  S        13.4713953573        6.4159224238        8.9461939280
  C        12.4041158266        9.2955761337        8.9402503307
  H        12.1613178233       10.3097646501        9.2514471829
  H        13.4494726953        9.3541342649        8.6698170392
  C        11.4145499242        9.0372110787        7.8301397296
  H        11.5744376060        8.1323664902        7.2999745257
  H        10.3948290191        8.9314294204        8.2998741688
  H        11.3895019342        9.7587636225        7.1003627937
  H        -1.4728126624       13.0266558652       17.3303320252
  C        -1.8927906752       13.8820853526       16.7610428959
  H        -0.9658960330       14.2290460955       16.2374625445
  C        -2.4529743830       14.8871550095       17.7692496429
  C        -2.9273985311       13.5471242580       15.7861958593
  C        -2.9884262263       14.1351010114       19.0139365582
  H        -1.6590258020       15.5912227039       17.9691450722
  H        -3.2289476979       15.4305806042       17.2626802848
  H        -3.0311522239       14.2817622495       15.0130626592
  H        -2.6417909669       12.7643308932       15.0519907267
  H        -3.8791116852       13.2344749202       16.2036126842
  C        -2.0110226163       13.4690705798       19.9486267507
  H        -3.6523589718       13.3484342280       18.6747745205
  H        -3.5241822847       14.8309963237       19.6548839520
  C        -2.3844311057       13.6581175405       21.3863079936
  H        -1.9293212933       12.4006061497       19.6255372679
  H        -0.9992424289       13.7415090663       19.8559911265
  C        -1.4204499211       12.9646898479       22.2980879764
  H        -3.3000702742       13.2480990987       21.6426181047
  H        -2.5179457949       14.7670149361       21.6106840326
  C        -0.2053401695       13.8577932634       22.5527614847
  H        -1.8862662138       12.5382509911       23.1863711648
  H        -1.0267766343       12.1007979945       21.6833679374
  C         0.9957678515       13.1794684068       23.3043516078
  H         0.2408081817       14.2325195457       21.5820879155
  H        -0.4964591274       14.7262647948       23.0873935888
  C         1.4675523050       11.8072918082       22.6843099491
  C         0.5671331093       12.3597881169       24.5081584615
  C         2.2253798423       14.0390309632       23.5798154906
  C         1.1736996439       10.6736283610       23.4100815317
  C         1.8424417640       11.4334802991       21.3929087238
  C         0.6151837005       11.0108973123       24.6092609430
  C         0.0307261457       13.0149950320       25.5846993884
  H         2.5582908150       14.4110386363       22.6513617529
  H         1.8648003671       14.8530579872       24.1583557516
  C         3.4404459509       13.3251461015       24.1753533868
  S         1.7027868279        9.1639310503       22.6474786899
  C         1.9477773630       10.0908674989       21.2282429689
  H         1.7764636544       12.1292539661       20.6224521166
  C         0.2274752740       10.4517518679       25.8166261817
  H        -0.0770483043       14.1352744657       25.5546699841
  C        -0.3458883638       12.4464379370       26.7647547927
  H         3.7725092550       12.5066852059       23.5595594253
  H         3.1247051862       12.8665256862       25.0605977347
  C         4.6567054824       14.2124496930       24.3620900230
  C         2.4572082986        9.4596205890       19.9590133155
  C        -0.2770152255       11.1103257398       26.9033909505
  H         0.3137775325        9.4074319077       25.8691655384
  C        -0.8461885050       12.8090711612       27.9906886405
  H         5.4436617769       13.5629851930       24.8123461158
  H         4.5407654171       15.0983587402       24.9884386807
  C         5.4169923820       14.6601007878       23.0954259243
  C         2.5067162544        8.0737129078       19.6350473572
  C         2.9208289168       10.2692918412       18.8554256991
  C        -0.7041847747       10.3710133134       28.1078898765
  C        -0.9393542279       11.6994865616       28.7939873075
  S        -1.2352094614       14.2696657955       28.7887394168
  H         6.0785454642       15.4133226753       23.5069108252
  H         4.7994339954       15.1827664914       22.4252727476
  C         6.1862183300       13.4791217443       22.3876489624
  N         2.2440344348        7.0080329575       20.5519771825
  C         2.7873576806        7.5014748223       18.4010728532
  C         3.3162852799        9.7297617461       17.6202911266
  H         2.6144970121       11.2865666668       18.8505335572
  C         0.4527103799        9.5227695219       28.6566780738
  C        -1.9853295038        9.5022823463       27.9534152049
  C        -1.3797515935       12.0269929612       30.1179570559
  C        -1.5016699365       13.3578789363       30.2272497783
  H         7.1315099073       13.1479937722       22.8542159198
  H         5.5521496401       12.5789164736       22.3665667648
  C         6.4072515354       13.8584481277       20.9210480539
  S         2.1735564638        5.5843070136       19.7255164539
  N         2.6481663559        6.0756763346       18.2811342301
  C         3.3007422862        8.2697159824       17.3380738945
  H         3.4458437474       10.3779572822       16.7582593636
  H         0.6235398710        8.6448666129       27.9804225839
  H         0.0891415493        9.1194105004       29.6021793212
  C         1.7561676350       10.3202442702       28.7793285665
  H        -1.8245064301        8.5197506447       27.6151681281
  H        -2.5837107777        9.3850718711       28.9099924815
  C        -2.9978738550       10.2398593688       27.0713430973
  H        -1.4243367081       11.2252326327       30.8067978405
  C        -1.6923966568       14.0628867293       31.5417232484
  H         7.4202609190       13.5610700683       20.5085289210
  H         6.2910058808       14.9097129881       20.8366054345
  C         5.3092944712       13.3453501985       19.8486021989
  C         3.5676397748        7.6992973171       16.0543119189
  H         2.4461276140       10.1124615112       27.9750716818
  H         1.6646469623       11.4651085189       28.6879948969
  C         2.4173648199        9.7964414644       30.0374328821
  H        -2.7082769761       10.2364524155       25.9792378418
  H        -3.1834935514       11.1937962069       27.5520694728
  C        -4.3640116929        9.6254038398       27.2091793345
  C        -1.7688435478       15.4452505260       31.6847512616
  C        -1.7512030386       13.3023554176       32.7642276870
  H         4.9775640188       12.3793658419       20.1988287959
  H         4.4377619841       13.9288402123       19.7997212662
  C         5.8277934856       13.2696413967       18.3864069979
  H         3.6787232288        6.6128271035       16.0762624676
  C         3.8658139714        8.2377856971       14.8588986033
  H         2.4229378161        8.6891265893       29.9349383916
  H         1.8745406494       10.1521412511       30.9559414275
  C         3.9277077897       10.2484788315       30.1090198110
  H        -4.4562258058        8.7474522482       26.5959318877
  H        -4.7402492683        9.3215772950       28.2473252657
  C        -5.4190723953       10.5977408058       26.6363553023
  N        -1.6279954886       16.4233661575       30.6739555094
  C        -2.0234331473       15.9563373301       32.9447254502
  C        -2.0718412825       13.8508964310       34.0276749762
  H        -1.7019717761       12.2832021961       32.6451421060
  H         5.7281684087       14.1445146795       17.7741949984
  H         6.8296702825       12.8985337577       18.1577910212
  H         5.1589973752       12.5729337569       17.9002198812
  S         4.1725439130        9.8694679621       14.3652891346
  C         3.8871923305        7.2439925958       13.7631469461
  H         4.3981578064        9.9594674825       29.2179936774
  H         3.8617381206       11.3245556012       30.2889445307
  C         4.7062580092        9.6386494378       31.3667522825
  H        -4.8446909344       11.1546572679       25.8897771192
  H        -5.6744876913       11.3081711000       27.4225816944
  C        -6.6181834271        9.8608887705       26.0365632987
  S        -1.6429415960       17.8900936966       31.4019044604
  N        -2.0977666941       17.3395317674       32.8784865115
  C        -2.2590436169       15.2638006696       34.1434677142
  H        -2.1567824690       13.1468701225       34.8094575243
  C         4.3896750144        9.1589344584       12.7483198969
  N         4.3887999080        7.8381748901       12.6526664734
  O         3.5152451235        6.0635726101       13.9027098773
  H         4.2052498550        9.9499785436       32.2346441483
  H         5.6987003749       10.0516622414       31.3406553206
  C         4.7668532515        8.0641098452       31.3192837639
  H        -6.1684682980        9.1310677544       25.3703787250
  H        -7.0383039053        9.1863206428       26.7730728201
  C        -7.6702175538       10.8600070859       25.4928864867
  C        -2.5389630707       15.9910464822       35.2718920515
  S         4.6885740209       10.1330166933       11.3170159096
  C         4.6171628311        7.1135650292       11.3735417552
  H         3.8967913452        7.7167465109       31.8816592742
  H         4.6816575164        7.7427697819       30.2367658815
  C         6.1375651424        7.6194345650       31.8115041099
  H        -7.1659391484       11.6089856506       24.8733506037
  H        -8.1232964083       11.4722645879       26.3667164209
  C        -8.8256211135       10.1393405620       24.7609088726
  H        -1.9758340163       16.8374459454       35.3956615684
  C        -3.2162057165       15.6200151796       36.4401864249
  H         5.4747828142        7.4642199416       10.8150676956
  H         4.7678814185        6.0621417780       11.5440067425
  C         3.3361347896        7.1194147739       10.5360486505
  H         6.3453159637        8.0496600781       32.8371414710
  H         6.9339578316        7.8347233298       31.2334082078
  C         6.1331838573        6.0654951485       32.0307022156
  H        -9.4178730587       10.7318205324       24.0618002294
  H        -8.5146582852        9.3533732098       24.0675330583
  C        -9.9013611362        9.5140248770       25.7145696055
  S        -4.0743127762       14.1302666953       36.8148561455
  C        -3.2326357331       16.5989636606       37.6133931254
  H         2.6190650488        6.2938544445       10.8033684316
  H         2.7556848651        8.0255514502       10.5980139595
  H         3.7039867949        6.9458280853        9.5385921664
  H         5.2063293433        5.5812553374       31.8128978394
  H         6.5521867431        5.7821839044       32.9237414812
  H         6.7723114452        5.6031864926       31.2914716586
  H       -10.6691004858        9.0044852355       25.1817419083
  H       -10.2746214889       10.3169805564       26.3272982589
  H        -9.4229713744        8.8244298252       26.3513986259
  C        -4.2451769041       14.7269635419       38.4087624670
  N        -3.9932231725       16.0479306978       38.5810205712
  O        -2.7529234987       17.7031733535       37.5484615855
  S        -5.1292620377       13.8419183987       39.6593075148
  C        -4.0307882619       16.7115079378       39.8806881731
  H        -4.2751765752       17.7038345763       39.5436781265
  H        -4.8707464027       16.4674483273       40.4532829154
  C        -2.7023493306       16.5630996640       40.6577747972
  H        -2.4508122844       17.4520197626       41.3025292700
  H        -2.8309337767       15.8820052752       41.4291726351
  H        -1.7693748439       16.2736380473       40.1130647726
