352
 i =    21300, time =    21300.000, E =        24.6108191563
  H        11.8682835770        7.1714188808       32.7538286008
  C        11.7525849307        6.2984108290       32.1400578398
  H        12.7473395161        5.9324947529       31.8165904382
  C        10.8789499590        6.7138629358       31.0028136699
  C        11.1628374300        5.1003058875       32.9486925393
  C        11.3331875601        5.9087171925       29.7370530427
  H         9.8527826867        6.4289643493       31.2827555370
  H        10.9400057902        7.8081463430       30.8993230778
  H        11.8218264526        4.4189725378       33.4580946404
  H        10.5378548096        5.6302533234       33.6315512649
  H        10.3945614451        4.5463218164       32.3812200730
  C        10.1468828329        5.6210978603       28.7974528689
  H        11.7850596751        4.8935723657       29.9447743201
  H        12.2266778692        6.3727258359       29.2307473301
  C        10.5857675020        5.5034829449       27.2815107217
  H         9.6870605145        4.7051490884       29.2000613338
  H         9.3716898864        6.3401497173       28.9749990956
  C         9.5636007863        4.7820444897       26.3615127051
  H        11.5413344527        4.9695504152       27.1550751099
  H        10.7060759972        6.5869163189       26.9866589682
  C         8.3296641211        5.6587350465       26.1146174505
  H         9.9187792276        4.6960780131       25.3959918888
  H         9.1805180820        3.9173382220       26.8508321119
  C         7.2016647256        4.9279992405       25.2616441569
  H         8.0094015228        5.8921715477       27.1103360150
  H         8.5741981427        6.5468959853       25.6368117358
  C         6.8739522044        3.5860564046       25.9762068689
  C         7.6958056026        4.2212786784       24.0755404557
  C         6.0042121086        5.8041889281       25.1008085488
  C         7.1830708853        2.4593766704       25.2061533412
  C         6.3644322019        3.2070808556       27.2085499273
  C         7.5745918712        2.8383995541       23.9121476341
  C         8.1025445927        4.8634979186       22.8900330682
  H         6.1545543138        6.4290502271       24.2556713447
  H         5.8869177686        6.4241958303       25.9927950954
  C         4.6962863593        5.0660206442       24.6987890614
  S         6.9135621846        0.9669208872       26.0301122805
  C         6.2791390945        1.8701548316       27.3497940318
  H         6.0663156351        3.9956542210       27.8159274583
  C         7.9051170456        2.2141988013       22.7492262189
  H         8.1144482384        5.9789727253       22.9428224603
  C         8.3958188894        4.2248663247       21.7455770590
  H         4.6778116463        4.6868140938       23.7071611548
  H         4.5749424440        4.1534792264       25.2689203912
  C         3.3300103511        5.8559351222       24.8066760974
  C         5.8686976197        1.1673697136       28.6332728153
  C         8.4291054543        2.8747286317       21.6752000086
  H         7.7831208458        1.1538203561       22.6143170075
  C         8.7380536019        4.6419444022       20.5054420010
  H         2.5570072705        5.4485711759       24.1355002347
  H         3.4134768856        6.8181128565       24.3463833713
  C         2.8313891208        6.1346619229       26.1854779416
  C         5.8235757088       -0.2328178705       28.9204361559
  C         5.3926112861        2.0175429330       29.7693279286
  C         8.7505326701        2.1895421825       20.4083834099
  C         9.0154583978        3.5712766490       19.7065925004
  S         9.1153057577        6.1615207045       19.7595218262
  H         2.2323487978        6.9453472241       26.1312825144
  H         3.6311989674        6.3067899043       26.8534708136
  C         2.1806146849        4.8456592924       26.6544444343
  N         5.9890466227       -1.2456257919       27.9381308948
  C         5.5457961237       -0.7434306912       30.2102093780
  C         5.0931334160        1.5531865447       31.0004971686
  H         5.4406171439        3.0975886074       29.6509992879
  C         7.5756008454        1.4118004313       19.7731971775
  C        10.0151902540        1.2771598649       20.4904924497
  C         9.4283973631        3.9728210977       18.3906439890
  C         9.4653588663        5.3577664872       18.2827275892
  H         1.4747475061        4.6289116509       25.8621016395
  H         3.0428653789        4.1711301888       26.7195533657
  C         1.4119179945        4.8750775876       28.0067070995
  S         5.9895214140       -2.7133994342       28.6982541077
  N         5.6021150340       -2.1535344256       30.2035745412
  C         5.2274013033        0.0963950650       31.2934654235
  H         4.8883591728        2.1864544774       31.8300025621
  H         7.2279982773        0.6273051380       20.4456555893
  H         7.8879775112        0.8935866058       18.8443619958
  C         6.3227928067        2.1780660459       19.4262761599
  H        10.3194921654        1.1731569123       19.4325528810
  H         9.7198740872        0.2587710039       20.8616479995
  C        11.2316060170        1.7966237014       21.1971733451
  H         9.5775410854        3.3041568597       17.5862310305
  C         9.6698274842        6.1123916594       17.0399895993
  H         1.1009436641        3.8277497400       28.3177288495
  H         0.5279120662        5.5657699111       27.9683118682
  C         2.2869548953        5.2268138283       29.2024826022
  C         5.0512861218       -0.5126364359       32.5374896664
  H         6.5819718548        3.0530016458       18.7539810012
  H         5.9846358853        2.5937155862       20.3719036073
  C         5.1973844029        1.3047008029       18.8659550164
  H        11.1379090063        1.5630483807       22.2747255949
  H        11.3295818135        2.8960403951       21.1590272436
  C        12.5682573572        1.1386013702       20.7167819637
  C         9.9692709772        7.5111205247       16.9386600046
  C         9.8022530736        5.3083556712       15.8074212098
  H         3.0770578312        4.4801883613       29.3577448119
  H         2.8076996824        6.1729312077       28.9788285108
  C         1.4207403826        5.4064696718       30.4900987563
  H         5.4309718036       -1.5676391365       32.5962168399
  C         4.7066995182       -0.0656428395       33.7705935361
  H         5.0668072306        0.3466881052       19.4020651734
  H         5.5324447619        0.9127709778       17.9309156797
  C         3.9015417713        2.0779995841       18.6110928670
  H        12.7145295925        0.3502330348       21.4720945592
  H        12.4232613387        0.5936711548       19.8042204564
  C        13.7065188274        2.1281630138       20.5681331572
  N         9.7603455958        8.4676016535       17.9448323810
  C        10.3757677858        8.0631166364       15.7337548596
  C        10.3360906858        5.8464444991       14.6300505850
  H         9.5986781845        4.2402606685       15.8040945119
  H         1.1520397279        6.4743448667       30.4789188489
  H         0.5039453994        4.7461763749       30.5404862314
  H         2.1340568096        5.2623476764       31.2962552954
  S         4.1379306077        1.5532578631       34.1523252473
  C         4.6928217717       -1.0145278610       34.8802014827
  H         3.8287275603        2.8697416459       19.3324784346
  H         4.0200614194        2.5080199782       17.5823959077
  C         2.7086850380        1.1597821825       18.4953828352
  H        13.4227676907        2.9769688188       20.0074279864
  H        14.4576532871        1.6085655974       20.0088545417
  C        14.3162707865        2.5361434214       21.8877289545
  S         9.8274775935        9.9292075923       17.2383184965
  N        10.4307592689        9.4818618226       15.7635254885
  C        10.6030575484        7.3489168752       14.5767806944
  H        10.4454436759        5.2694676339       13.7103667887
  C         4.1928426546        0.9885718792       35.8241607429
  N         4.4064495965       -0.3284837567       35.9527027254
  O         5.0548419370       -2.2245284630       34.7516674711
  H         1.8595798291        1.8754276853       18.2885620358
  H         2.4741962274        0.6536417300       19.4249871631
  C         2.8076477821        0.0437580808       17.4514365567
  H        15.0943350907        3.3035970397       21.7165483408
  H        13.6340852978        2.9737082056       22.5818419544
  C        15.0365775571        1.3431769681       22.5426479207
  C        10.9828967485        8.0629006855       13.4299058313
  S         3.9211002352        2.0732422966       37.1191819022
  C         4.4870931702       -0.9817387052       37.2819224540
  H         2.4648157517        0.3839608809       16.5352238820
  H         3.8785096481       -0.3135783080       17.3205280764
  C         1.8731228814       -1.0453129834       17.8869815300
  H        15.2953918078        0.6777702541       21.7574283173
  H        14.3240879123        0.8504556624       23.2301045473
  C        16.3962445177        1.7468926885       23.2070596724
  H        10.6706615139        9.0793352528       13.3862176366
  C        11.5095197105        7.6689989484       12.2481760509
  H         3.7699008174       -0.5239534901       37.9758093478
  H         3.9988509356       -1.9437539061       37.1590062099
  C         5.9662159378       -1.0198603321       37.7511946911
  H         1.0577979402       -0.6718142167       18.3722286832
  H         2.3834145927       -1.5379735529       18.6464401741
  C         1.5088226108       -1.9409533186       16.7029602793
  H        16.1681977426        2.7547332050       23.5746747907
  H        16.6297295718        1.0936439690       24.0122289148
  C        17.6197128227        1.7508383489       22.3082113795
  S        12.1399849826        6.1287149171       11.8102035082
  C        11.5786114523        8.7370091573       11.1961386878
  H         6.2843143975        0.0086426223       37.9055727637
  H         6.1729190237       -1.6296387121       38.6281183988
  H         6.6680487038       -1.4771479587       37.0146405456
  H         0.6762618469       -1.4077785001       16.2535644256
  H         1.1261413161       -2.9335494212       17.0222844566
  H         2.2052560747       -1.9367889239       15.8678936495
  H        18.4608256918        1.8253844951       23.0227489208
  H        17.7931503137        2.6648807422       21.7239790614
  H        17.7187701414        0.8444057102       21.7566192373
  C        12.5066209395        6.8608359364       10.3013418600
  N        12.2525941681        8.2106243921       10.1521245313
  O        11.2188993233        9.9000502151       11.3277719737
  S        13.3584767609        6.1458434099        8.9287012898
  C        12.3311466993        8.9057756989        8.8474618741
  H        12.2829565446       10.0207736129        8.9407643632
  H        13.2818898222        8.7779205221        8.3375701525
  C        11.2035978455        8.5749584005        7.8710041900
  H        10.7149242059        9.4322118181        7.4456131565
  H        11.3764083357        7.9070292030        7.0420022590
  H        10.4651990134        8.0526606288        8.4869219889
  H        -4.0486404722       14.6433428715       15.7546089982
  C        -3.7020702449       13.6138080548       16.0341887724
  H        -4.5500152074       13.1480408100       16.6231546550
  C        -2.5070566160       13.4849455363       16.9508057725
  C        -3.4699798673       12.8893751340       14.7291785491
  C        -2.7392987044       14.3685297428       18.3407326281
  H        -2.5649330580       12.4202392890       17.1628636404
  H        -1.5405056204       13.7051946749       16.4451626559
  H        -3.6036696089       11.8084604236       14.7427348798
  H        -4.0765041708       13.3617898228       13.9287351184
  H        -2.4145022415       13.0723515020       14.3123386377
  C        -1.8205293280       13.8865278292       19.5343117102
  H        -3.7710936876       14.3749682244       18.6551463065
  H        -2.4339953761       15.4269390479       18.2051885251
  C        -2.4900395681       13.5286320004       20.8743774872
  H        -1.3376326071       12.8957075159       19.3163350612
  H        -1.0880579902       14.6805413764       19.7019658951
  C        -1.6207629336       12.6981029183       21.7211014908
  H        -3.4535187915       13.0270614866       20.8587026108
  H        -2.8283963374       14.4434641388       21.3480563428
  C        -0.4134112742       13.4606732243       22.2911499279
  H        -2.1950444459       12.4065893010       22.6154509753
  H        -1.3031971089       11.7865788714       21.2350994874
  C         0.6411806431       12.7136559170       23.1302912257
  H         0.1084981797       13.9049979895       21.4945238602
  H        -0.8266378857       14.2885238493       22.8533354854
  C         1.0867499451       11.3581166505       22.4524211875
  C         0.1396194355       12.0195713730       24.3346558604
  C         1.9832200072       13.5552511088       23.3167196641
  C         0.8445008209       10.2351823875       23.2262792617
  C         1.5757797047       10.9956806719       21.1901221285
  C         0.3040277122       10.6891569129       24.4434601604
  C        -0.2684303504       12.6626255449       25.4935519328
  H         2.1257025729       14.2495306302       22.4099778206
  H         1.8787263900       14.2914276270       24.1977320139
  C         3.2638677636       12.7311720391       23.5553392111
  S         1.3289640973        8.7607945277       22.4165672235
  C         1.7184696746        9.6690825974       20.9790088129
  H         1.8142906252       11.8042442949       20.5117570938
  C        -0.1384371728       10.0804543920       25.6082080841
  H        -0.2611245973       13.7303009930       25.5630516682
  C        -0.5188267015       12.1289900612       26.7156505928
  H         3.5637668333       12.1094852899       22.6958800649
  H         2.9935427346       11.9643978071       24.3621306381
  C         4.4578398036       13.5925793823       24.0034261984
  C         2.3099029859        9.0407098666       19.7156251430
  C        -0.5131654854       10.7808125614       26.8435063349
  H        -0.1036456060        9.0419765916       25.5115875064
  C        -0.7622327094       12.5582146253       27.9501312051
  H         5.1132547041       13.1344019581       24.7960010789
  H         4.0547965655       14.5044227290       24.4820116749
  C         5.3841472654       13.9866437296       22.8266839130
  C         2.3625883691        7.6711858695       19.4689683631
  C         2.7592585133        9.9324322139       18.6351255304
  C        -0.8366918435       10.0800276147       28.0895717497
  C        -0.9062504323       11.4773945377       28.7973002169
  S        -0.9915866488       14.0315033440       28.7835467016
  H         6.1792621737       14.6941448178       23.1866664393
  H         4.8533638733       14.6626131325       22.1252596069
  C         5.9701258977       12.8105032518       22.0421016465
  N         1.9699794262        6.6932065507       20.4087709863
  C         2.7717617124        7.1466245611       18.2587497881
  C         3.3205324160        9.4331151939       17.4670384128
  H         2.6916514281       10.9870124898       18.8009074651
  C         0.2043699173        9.2563887540       28.7624218258
  C        -2.2991802542        9.3821196265       27.9777850934
  C        -1.1803734449       11.8816686190       30.1413119152
  C        -1.2267569829       13.2149819703       30.3329651342
  H         6.5646913252       12.3485124131       22.7932590095
  H         5.2521529822       12.1087076379       21.8589755745
  C         6.8658443949       13.0515302585       20.8804802189
  S         2.0774052888        5.2093580093       19.6802209094
  N         2.6566756512        5.7196496413       18.2624680611
  C         3.1523408883        7.9729296763       17.1735305676
  H         3.7471346380       10.1334233174       16.7637664110
  H         0.5828185196        8.5577452137       28.0044985023
  H        -0.1537654629        8.7603997362       29.6174028959
  C         1.5059142066       10.0224615008       29.1625290443
  H        -2.2893033073        8.3855195950       27.4935429640
  H        -2.7724941930        9.2615093134       29.0184231031
  C        -3.2617044155       10.2039937002       27.1447348005
  H        -1.3758412538       11.0781156243       30.8867894920
  C        -1.5045244836       13.9165816485       31.6036094887
  H         7.6495259156       12.2537547631       20.8256729001
  H         7.5240960282       13.8774180517       21.0876887135
  C         6.1011134499       13.2227420811       19.4978863779
  C         3.4211453993        7.3600056672       15.9076681963
  H         1.7321333575       10.7751523642       28.4148694417
  H         1.2219106688       10.5499437589       30.0559135164
  C         2.7087891719        9.1129082893       29.5275958828
  H        -2.8888028757       10.1509716429       26.2108285717
  H        -3.3233896878       11.2964295228       27.3599457586
  C        -4.6762584717        9.4724232717       27.1806673752
  C        -1.6594818990       15.2839309795       31.6481993678
  C        -1.6631556192       13.1111713991       32.8410772254
  H         5.3989229643       12.4292022616       19.2753734423
  H         5.4936305808       14.1262919388       19.5796443722
  C         7.0031401411       13.3376340534       18.2610665919
  H         3.2386361320        6.3231020896       16.0043025283
  C         3.7204921992        7.8855956927       14.6530755552
  H         2.8011909693        8.4372698415       28.5935525441
  H         2.4347613740        8.3804037441       30.3239839336
  C         3.8588467805       10.0172600663       29.9588369675
  H        -4.6317579243        8.6831991780       26.4676416602
  H        -4.9024695987        9.0880026413       28.1861314073
  C        -5.8505031482       10.2872179438       26.7514488215
  N        -1.4874116649       16.2671066531       30.6062822364
  C        -2.1831591229       15.8742811956       32.7975832133
  C        -1.9899359853       13.7042328660       33.9913849892
  H        -1.5187595484       12.0602283935       32.8262678484
  H         8.0156162686       13.0669993950       18.4228602189
  H         6.6956952823       12.6078766893       17.5485444636
  H         6.9079652245       14.3276353914       17.9423800426
  S         3.9105555168        9.4988067041       14.2998343677
  C         3.7174024716        6.9575404534       13.4813001346
  H         4.0635960585       10.6874206406       29.1332157813
  H         3.5953016476       10.5669390529       30.8308514167
  C         5.1336592144        9.2400689637       30.3331254402
  H        -5.7184083066       10.6994475825       25.7597307252
  H        -5.9379748734       11.1247120892       27.4809250686
  C        -7.1736411329        9.4227419014       26.7346352641
  S        -1.8341793109       17.7405116980       31.2188869363
  N        -2.3577392387       17.2777811708       32.6750791801
  C        -2.2481483111       15.1937235067       34.0789929865
  H        -1.9869788679       13.0737174441       34.8364776777
  C         4.1734142407        8.9454236365       12.6080619994
  N         3.9924235804        7.6168503722       12.3740718987
  O         3.3584204952        5.7637689511       13.5980664557
  H         5.8414297185        9.8622780878       30.9119049109
  H         5.8209432623        9.0872142324       29.5188121270
  C         4.9566633850        7.9063212351       31.0929780647
  H        -7.1799403205        8.8584585747       25.7642563129
  H        -7.1001371970        8.7118662958       27.4715860039
  C        -8.4030014057       10.2503639686       26.8696022867
  C        -2.5588196266       15.9874773503       35.2150368423
  S         4.2631710774        9.9703290002       11.2068588808
  C         3.9365817719        6.9462894231       10.9912986948
  H         4.4646598407        7.9930652711       32.0850889851
  H         4.2074517347        7.1859734166       30.7218536687
  C         6.1634648646        7.0234561337       31.0325216610
  H        -8.0896463964       11.1833478628       26.4526705992
  H        -8.6677034967       10.2972417766       27.9434304185
  C        -9.6941160941        9.6941807868       26.2612803075
  H        -2.2251796986       16.9722060379       35.0985009663
  C        -3.0308183267       15.6465256617       36.4494663667
  H         4.6824320627        7.4043300121       10.3245871135
  H         4.2687813556        5.9349482896       11.0834365351
  C         2.5429201962        6.9912302425       10.4324785352
  H         7.0800657357        7.5296204787       31.2047564677
  H         6.2824960738        6.4998328240       30.0533870429
  C         5.9026429031        5.8608636612       32.0339925411
  H        -9.9396316433        8.7139024115       26.6444300252
  H       -10.5440006968       10.3461006551       26.3944406254
  C        -9.6388294523        9.4768192997       24.7138620502
  S        -3.5700471018       14.0789146205       36.9765399344
  C        -3.1276057090       16.7089320207       37.4070324134
  H         2.2551400455        8.0353486466       10.3896689684
  H         2.6042521326        6.7435062739        9.3715530484
  H         1.8943445542        6.3874889117       11.0104439625
  H         4.8683956163        5.5661678843       31.9764431086
  H         5.9911491084        6.1081544490       33.0790419541
  H         6.4492048664        5.0316140566       31.7749653476
  H        -8.9751172808        8.6920427488       24.3163918258
  H        -9.2453496945       10.3496166053       24.1813469198
  H       -10.6376140469        9.2180070772       24.4366738022
  C        -3.9866803295       14.9235852291       38.5064186630
  N        -3.7321281832       16.2745342143       38.4988481424
  O        -2.6454630480       17.8783855166       37.2446935880
  S        -4.8565791138       14.2203175304       39.9807333529
  C        -3.9185016947       17.1998292477       39.5509006490
  H        -3.8827678159       18.2118985052       39.1959313800
  H        -4.8667231496       16.9390444525       40.0350843565
  C        -2.6544483752       17.2409638336       40.5394295414
  H        -2.8754803818       17.4422890618       41.5707014114
  H        -2.1758508252       16.2388812568       40.6505113416
  H        -2.0597803827       18.0307753867       40.2040967957
