352
 i =    24000, time =    24000.000, E =        25.2385333022
  H         9.4152822665        7.0126683159       32.4630663728
  C        10.2878007816        6.4191860138       32.1132083191
  H        11.0701770168        7.1724317273       32.2835696068
  C         9.9663758124        6.1227720472       30.6531217354
  C        10.3241446136        5.3566937981       33.1729406348
  C        10.9979100585        5.1011976852       30.1039596984
  H         9.0441230631        5.6463515986       30.5221536022
  H        10.0322259884        6.9935406354       30.0242453157
  H        11.1484110322        4.6494821791       33.0766325365
  H        10.4460980700        5.7531082950       34.1609764955
  H         9.3871498965        4.8930181598       33.2621816616
  C        10.5575868546        4.4228114975       28.8099203059
  H        11.2113721200        4.2513464090       30.7692492865
  H        11.9575697464        5.5712727041       29.9009951325
  C        10.8413042936        5.0963206487       27.4444648601
  H        11.3075718655        3.6424925643       28.8710457490
  H         9.5725459884        3.9950763968       28.6329692463
  C         9.9963487835        4.5194639852       26.2674674036
  H        11.9180994716        4.9168349956       27.2408224533
  H        10.6254621348        6.1760811636       27.5863546317
  C         8.7240654174        5.3437614701       26.1080316437
  H        10.4971675089        4.6076409539       25.3462306388
  H         9.8005123912        3.4772097869       26.3452887990
  C         7.5392878354        4.6182583978       25.5987949514
  H         8.4576766953        5.7241797253       27.0936897916
  H         8.9805548372        6.2480035427       25.5627638420
  C         7.2157652575        3.2841032834       26.2912281690
  C         7.9360720551        3.9075205371       24.3185943979
  C         6.1790430292        5.4137610177       25.5708792396
  C         7.5065848503        2.2168293836       25.4818523474
  C         6.7386873701        2.9194307321       27.5702298472
  C         7.9035761629        2.5622299020       24.1908955739
  C         8.1798171396        4.6508701531       23.2088968760
  H         6.3556057619        6.4082973597       25.1767779299
  H         6.0063534381        5.6920876545       26.6097184460
  C         4.8440175775        4.7171089885       25.1561570479
  S         7.1772078599        0.6845222727       26.2908752100
  C         6.5619535946        1.5645829954       27.7016166137
  H         6.5970910336        3.7260578468       28.2464865761
  C         8.2626370927        2.0032745626       23.0282779464
  H         8.1086839275        5.7307333376       23.2165902384
  C         8.4696294552        4.1048270260       22.0247625512
  H         5.0078221021        4.2931013084       24.1487634926
  H         4.6390850750        3.8367584833       25.7865878418
  C         3.6679001343        5.6445826335       25.1846565876
  C         6.0341283771        0.8874729267       28.9956964673
  C         8.5097829894        2.7635134590       21.8346875265
  H         8.3979516539        0.9260489388       22.9907189759
  C         8.7883621218        4.5302172428       20.7726773138
  H         3.0036390337        5.2304335685       24.4073481065
  H         3.7010053656        6.6815104425       24.8023215461
  C         2.9282787604        5.8154219022       26.5271836436
  C         6.0188175447       -0.4997486589       29.3250250064
  C         5.6759463489        1.7263125678       30.1154628222
  C         8.8251001297        2.1138115581       20.5150414117
  C         8.9704646310        3.4941565920       19.8332286915
  S         8.9435762175        6.0868336165       19.9995910609
  H         2.2240976565        6.6939334702       26.3757682831
  H         3.6648160725        6.2203270364       27.2414265155
  C         2.2651633379        4.6223185778       27.1812973087
  N         6.3639008131       -1.5027205451       28.4654416319
  C         5.6479716747       -0.9729953542       30.5347181400
  C         5.4778170103        1.2420738053       31.4378103413
  H         5.6190531146        2.8252185812       30.0354556819
  C         7.6273409394        1.2009562239       19.9703001149
  C        10.2498052324        1.2664806369       20.5199452910
  C         9.3310579515        3.9423324577       18.5659589092
  C         9.3265908792        5.3218709545       18.4897981738
  H         1.6647309939        4.0469726494       26.3995775835
  H         3.0791994144        3.9294488780       27.5835578015
  C         1.2863655457        4.9920840511       28.3215373881
  S         6.1570963670       -2.9456118647       29.2765765702
  N         5.5490640913       -2.3747439693       30.6395467083
  C         5.2900415768       -0.2032402073       31.6470977413
  H         5.2771444318        1.9238358475       32.2077551317
  H         7.2972594594        0.7323947048       20.9490075439
  H         8.0007224024        0.4402246243       19.2257232885
  C         6.4200055233        1.9846531742       19.4470950252
  H        10.5823874733        0.7852816372       19.6001750320
  H        10.1059767098        0.3942486001       21.1373910078
  C        11.4582945114        2.0349404050       21.1625109946
  H         9.5908618034        3.2203560291       17.8109868180
  C         9.6664880170        6.1609383772       17.3331504472
  H         0.6690826876        4.1785107895       28.7751401288
  H         0.5553930495        5.6303729794       27.8715746926
  C         1.9371120860        5.7728424724       29.3834003113
  C         5.0039058293       -0.7117770493       32.9208713956
  H         6.7271744545        2.5921364227       18.5287991740
  H         6.0884190922        2.6817950532       20.2849458466
  C         5.1870722653        1.0551390068       19.2322713822
  H        11.2896638434        2.1817403612       22.2412897983
  H        11.5623867049        3.0352252220       20.6865636387
  C        12.7917883284        1.2027669339       20.8865669563
  C         9.7968064610        7.5484720140       17.3029112620
  C         9.9474145983        5.4444746345       16.0716356036
  H         3.0326259232        6.0576855887       29.2562001178
  H         1.4146719243        6.7095118506       29.5155503690
  C         1.9478618358        5.0817284494       30.7843490791
  H         5.2064026582       -1.7391560760       33.0141385193
  C         4.6309985016       -0.2405366458       34.1586956012
  H         4.9753091541        0.5265616615       20.0853877232
  H         5.3970068959        0.3155067727       18.4413035132
  C         3.9085096719        1.9014269793       18.9543157843
  H        12.8958790418        0.4016625677       21.6762142136
  H        12.7354741712        0.7066488767       19.8740086586
  C        14.0067074872        2.0585637805       20.9077901468
  N         9.5321737992        8.4969747962       18.3375911248
  C        10.2075356537        8.2433618122       16.1709575193
  C        10.3552795377        6.1544901320       14.9117859719
  H         9.7506369947        4.3854448144       15.9481531051
  H         2.3530793551        5.7568823140       31.4808740214
  H         0.9369964486        4.7460215052       31.0673225259
  H         2.6579343846        4.2085769692       30.7016441521
  S         4.3335840095        1.4034252141       34.5461893859
  C         4.4297463236       -1.2349942238       35.2146089747
  H         3.7662252123        2.5841760590       19.7555107298
  H         4.0165499721        2.5138084784       18.0304349888
  C         2.6780320245        1.0573629423       18.7878602638
  H        13.9016480332        2.9443201119       20.2898706386
  H        14.8435484036        1.4574963459       20.4868307322
  C        14.5083725524        2.5923248948       22.2611805286
  S         9.7282219305        9.9593857611       17.8418875547
  N        10.0630463565        9.6344286762       16.2838229299
  C        10.5678064170        7.6264044714       14.9319187085
  H        10.5169226536        5.6337522658       13.9680807697
  C         4.0597511789        0.7896731221       36.1959899993
  N         4.0115694419       -0.5807009423       36.3146730824
  O         4.6570299977       -2.4002628093       35.0872228076
  H         1.7266145635        1.7433062280       18.6284809906
  H         2.4885269277        0.4043726389       19.6117654991
  C         2.7278260043        0.1582842957       17.5277340865
  H        15.3001319082        3.3673857026       22.1040356118
  H        13.6832867965        3.1223329481       22.6949324397
  C        15.0374302837        1.5397028372       23.2570911619
  C        10.9461984691        8.4316626899       13.7540209160
  S         3.6796833872        1.7321067929       37.5915645539
  C         3.9956086633       -1.2589712536       37.6639268942
  H         2.3791486833        0.7286562394       16.6268753425
  H         3.6858681650       -0.3192647783       17.2749410895
  C         1.7735015667       -1.0372656622       17.7730560862
  H        15.1393034042        0.5319993590       22.8290159797
  H        14.3471399474        1.3926374962       24.0804897088
  C        16.3519467736        1.9302606259       23.8712854727
  H        10.6515075856        9.4197040918       13.8359435818
  C        11.4330881306        8.1201527030       12.5205370228
  H         3.3863443543       -0.8674912202       38.4106901108
  H         3.5413606437       -2.2499675910       37.4824933929
  C         5.3907480316       -1.3080304797       38.2143806922
  H         0.9469634769       -1.0013011278       17.0476717204
  H         1.1370028752       -0.9224532064       18.6151945245
  C         2.3893739390       -2.3888987435       17.9321869892
  H        16.2664743228        2.9565953878       24.3127244910
  H        16.5328612964        1.3075394268       24.7286654056
  C        17.5218714258        1.7700096263       22.9661126463
  S        12.0666584061        6.6421181808       11.9440198074
  C        11.3727171789        9.1769611736       11.4773824165
  H         5.6378621010       -0.3131295960       38.4987031289
  H         5.3777882054       -1.8001302480       39.2027980649
  H         6.2004338337       -1.8196327128       37.6849383915
  H         2.6199642682       -2.7420037534       16.9167883761
  H         1.6691285662       -3.0355622351       18.3927483173
  H         3.2179638459       -2.3670915135       18.5549688409
  H        18.3949452108        1.3859925163       23.5519263298
  H        17.8125160629        2.7938661302       22.5166583790
  H        17.3599359110        1.0887993671       22.0762041853
  C        12.3220464228        7.4889506100       10.4136357915
  N        12.0513176911        8.7623663810       10.3945376017
  O        10.9091911308       10.2653449251       11.6368144374
  S        13.2289420802        6.9261255391        9.0499606645
  C        12.1921154245        9.7676127247        9.3377585964
  H        12.2695374147       10.7997904503        9.6865785133
  H        13.1825854788        9.6258499377        8.9613175957
  C        11.0541583886        9.8012506532        8.3286096873
  H        10.2570302409        9.1347653176        8.6375010549
  H        10.5983798736       10.8327383885        8.2957845752
  H        11.5120745689        9.6626192861        7.3347979248
  H        -3.4521521939       14.5383195224       16.3031670235
  C        -3.4078367221       13.4728240465       16.1567626922
  H        -4.2975856815       12.8879038147       16.4923950540
  C        -2.3881971361       13.0220036802       17.1691366744
  C        -3.0907760946       13.1238790619       14.6795181948
  C        -2.9404737122       13.4668696973       18.5287956794
  H        -2.3563182410       11.9779036495       17.0989540581
  H        -1.3642488053       13.4496309033       17.0043672770
  H        -2.1838800703       13.5928137346       14.2725685098
  H        -2.9009116074       12.0327955889       14.6471325961
  H        -3.9374113614       13.2293321453       14.0059827532
  C        -1.8012722204       13.3615402354       19.5750503742
  H        -3.6398063064       12.6508236174       18.8254156593
  H        -3.4776354284       14.4414087032       18.3757295747
  C        -2.3175167760       13.1800468002       21.0790205426
  H        -1.2184118106       12.4455963455       19.2916001992
  H        -1.1151242712       14.1961765276       19.4389869175
  C        -1.2564581203       12.5721580217       21.9637020577
  H        -3.1784577957       12.4756317958       21.1328110239
  H        -2.5497400256       14.1091346480       21.6050334484
  C        -0.1542556616       13.4632016698       22.6251797937
  H        -1.7672363337       12.1236605982       22.7976342565
  H        -0.7042675715       11.7516757947       21.5020047322
  C         1.0504346317       12.8347763581       23.4448770370
  H         0.1972186822       13.9913947888       21.7435110176
  H        -0.5347681532       14.2370744133       23.3156113879
  C         1.5473789827       11.5119567971       22.7368723873
  C         0.6209877940       12.0621955670       24.6291259510
  C         2.2160026619       13.7438055139       23.8125159023
  C         1.2773199199       10.3918792204       23.5107943285
  C         2.0109145442       11.1064558385       21.4336998512
  C         0.7156177966       10.7534286317       24.6976098398
  C         0.0894675652       12.7021760790       25.7147736641
  H         2.4924559345       14.3541008323       22.9420048097
  H         1.8580233211       14.5662411443       24.4603038028
  C         3.4236093293       12.9263091112       24.2193231372
  S         1.7569366326        8.9098964114       22.7638337793
  C         2.1287611293        9.7761960201       21.3183449029
  H         2.2430508025       11.9036147044       20.6852917286
  C         0.2654703274       10.0660539514       25.8092066720
  H         0.0238992530       13.7414002239       25.6479442365
  C        -0.3253001939       12.1029650133       26.8705242130
  H         3.5089058920       12.2034318942       23.4534764471
  H         3.1778711486       12.4466957208       25.1798034521
  C         4.5873154964       13.9352320525       24.2983146560
  C         2.4546081977        9.0778699679       20.0373197376
  C        -0.2037265865       10.7796530124       26.9413774529
  H         0.3063255122        8.9694436072       25.9674849101
  C        -0.6411877425       12.4785653145       28.1701450830
  H         5.2381059935       13.5769112101       25.0379372940
  H         4.3450268729       14.9551740645       24.6016267594
  C         5.4376033933       13.9430310703       23.0104442317
  C         2.3545272808        7.7082006164       19.7688306855
  C         2.9274255671        9.9507456110       18.9449168441
  C        -0.6265621235       10.1198666835       28.2795095955
  C        -0.9044961957       11.4033150800       28.9457617356
  S        -0.9205273477       13.9836931358       28.9360582886
  H         6.1724957155       14.7367081686       23.0810588751
  H         4.8437695622       14.1168609318       22.1050798691
  C         6.2270120641       12.6351456882       22.5352291350
  N         1.9341205148        6.6747853995       20.6622446407
  C         2.7052101986        7.2230420509       18.5396315796
  C         3.2529707832        9.4039971768       17.6596761093
  H         3.0489991622       11.0195981555       18.9580329728
  C         0.5020125216        9.2376359400       28.8290078612
  C        -1.8525401351        9.2255222888       28.0332786286
  C        -1.4361881416       11.7027386926       30.2053762228
  C        -1.3705117417       13.0538452633       30.4298526163
  H         6.4341612565       12.1203707566       23.5070228082
  H         5.4913036665       11.9595803733       21.9693091417
  C         7.5288231289       12.7498264051       21.6103393839
  S         1.9285711269        5.2334200659       19.8079469469
  N         2.4215399983        5.8446138053       18.3800048442
  C         3.2015622095        7.9654053427       17.4618533363
  H         3.6085310074       10.0613449184       16.8746695036
  H         0.7616084316        8.5304446584       28.0606011670
  H         0.1827050863        8.7119141518       29.6813098409
  C         1.7025478211       10.0894509839       29.3211378206
  H        -1.5867541749        8.3017187783       27.4862336490
  H        -2.2491185073        8.8922482918       29.0069392395
  C        -2.9673469753        9.9579369486       27.3050791855
  H        -1.7369316722       10.9342474461       30.9011906273
  C        -1.6794150950       13.7377307609       31.7106661151
  H         7.9697267065       11.7760961974       21.3080881460
  H         8.3804233029       13.1993479782       22.0481713602
  C         7.3397420114       13.7157224988       20.4069659751
  C         3.3365977874        7.3066227377       16.2025589121
  H         1.9740274272       10.7743711589       28.5220060816
  H         1.5672801141       10.6935602679       30.1694539894
  C         2.8102257681        9.0769695057       29.7282988833
  H        -2.7473416121       10.4633486398       26.3335139364
  H        -3.4394037215       10.6668687298       27.9973800701
  C        -4.1469670829        9.0432134277       27.0166985305
  C        -1.6525906496       15.1608682342       31.8935227260
  C        -1.8218100759       12.9632815377       32.9253163507
  H         6.3612632143       14.1219680433       20.4559677508
  H         7.9710240770       14.5329143540       20.4504356611
  C         7.3889353804       13.1502254630       19.0188999699
  H         3.4454481251        6.2601338038       16.2886493687
  C         3.6877305527        7.7530398584       14.9100657716
  H         2.8743784019        8.3293708280       29.0024130735
  H         2.4630314374        8.5916232768       30.6841862733
  C         4.2069126584        9.7541225359       29.9287871325
  H        -3.7170870797        8.3363754173       26.2803153829
  H        -4.3024518548        8.3504856527       27.8666482107
  C        -5.3766051845        9.7781984008       26.5326604038
  N        -1.4937299778       16.1523106219       30.8351314768
  C        -2.0087404379       15.7991287073       33.1174036490
  C        -2.0500838613       13.5611196956       34.1805070253
  H        -1.7822368604       11.9211966667       33.0527189140
  H         7.4377082583       13.9944403788       18.3665919546
  H         8.1407297571       12.4136356105       18.7536134246
  H         6.4727346173       12.6121036117       18.7806769718
  S         3.8618078457        9.3800205071       14.4039779903
  C         3.8066256741        6.7815533745       13.7594155670
  H         4.4507225545       10.2486777438       29.0099386895
  H         3.9748532487       10.5665915557       30.6209358298
  C         5.3638124832        8.8744097772       30.3154461514
  H        -5.8461890287        8.9875972502       25.8397336673
  H        -4.9259696224       10.6427293622       26.0119079323
  C        -6.2909725947       10.1153701442       27.7493487941
  S        -1.6189732207       17.6604200364       31.5489004274
  N        -2.0518788318       17.2097763917       33.0580907957
  C        -2.1949982882       15.0888351206       34.3399751215
  H        -2.1559750942       12.8560644163       35.0586105761
  C         4.0942636154        8.7866222843       12.7339438851
  N         4.0900197058        7.4143551741       12.5880967484
  O         3.5046566855        5.6289698791       13.8913258802
  H         6.2785271647        9.5210142673       30.5922431153
  H         5.6778310222        8.2423341483       29.4988999927
  C         5.0804324521        7.8171178164       31.3053196823
  H        -6.2653264679        9.2142270748       28.3511089627
  H        -5.7927291123       10.8760083446       28.3836455417
  C        -7.6683489495       10.6177276156       27.2684140349
  C        -2.4424319558       15.7800239838       35.5388627257
  S         4.5285006562        9.8574697872       11.4134474643
  C         4.0421039798        6.7058607049       11.3432396702
  H         4.8122591503        8.3590421611       32.1939147980
  H         4.2585806210        7.1589678992       31.0413878056
  C         6.3896474118        6.9619678708       31.5161665107
  H        -7.5001561082       11.2529203868       26.4540117974
  H        -8.1381329909       11.1048887517       28.1435582214
  C        -8.5279502024        9.4222277091       26.8399288056
  H        -2.0920651309       16.7986980593       35.4479393888
  C        -2.9296162141       15.4731918429       36.7822012544
  H         4.6462503174        7.1960812678       10.5144213173
  H         4.4637100608        5.7195394766       11.5948612392
  C         2.5786936700        6.7678893665       10.7878790058
  H         6.4918916733        6.9162497258       32.6631012906
  H         7.3034436295        7.4832462163       31.0796901116
  C         6.2719632797        5.5718536156       30.8510064250
  H        -8.0350437780        8.4757804065       26.7566402245
  H        -9.2532247291        9.3100482874       27.6088261971
  C        -9.2561610536        9.7801158687       25.5508825244
  S        -3.5824994391       13.9098051426       37.2783254011
  C        -3.1336611782       16.6204507395       37.6946316744
  H         2.5105006721        5.8468919432       10.1744409855
  H         1.8408013018        6.6817765421       11.5380975211
  H         2.4617170579        7.6581753150       10.1626926141
  H         7.1357994204        4.9116608261       30.7886694099
  H         5.7257208010        5.6081151013       29.9075027297
  H         5.6580144745        4.9778464403       31.5363723278
  H        -8.8645899141        9.1077284699       24.6865002147
  H        -9.1427653918       10.7710410804       25.2684924722
  H       -10.3393624223        9.7113619594       25.7050946949
  C        -4.0104283256       14.7682735386       38.7398476025
  N        -3.8057384727       16.0926617266       38.7848140342
  O        -2.8595706761       17.8311534775       37.4986960145
  S        -4.4391360893       14.0325710670       40.2768424561
  C        -4.0042111561       17.0539080710       39.9074448902
  H        -4.0247773088       18.0434199604       39.4518206993
  H        -4.8929390485       16.8287064456       40.4742323466
  C        -2.7697794408       17.0715982463       40.8099881269
  H        -2.6413952606       18.0808785078       41.1333070084
  H        -3.0105216422       16.5042528485       41.7101539070
  H        -1.8717846930       16.6535704830       40.3971832005
