352
 i =    55700, time =    55700.000, E =        25.3457707777
  H        11.3423343783        5.2693136985       32.4269667232
  C        10.4809399511        5.8766036544       32.2291608980
  H         9.7168999545        5.1490343861       31.9857067054
  C        10.6845918972        6.8295950246       31.0697865028
  C        10.0763474453        6.6425156280       33.5086838804
  C        11.2210791949        6.0085975458       29.8965506351
  H         9.7608537534        7.3141405093       30.7520030818
  H        11.3784750864        7.6363953586       31.2606543082
  H         9.0906833835        7.1128124758       33.4649535649
  H        10.1940504836        6.0847080964       34.4718184112
  H        10.7452162081        7.4656418607       33.4881130881
  C        10.1429650922        5.6002641347       28.8879642828
  H        11.7961822639        5.1036992192       30.2024411044
  H        11.9257448975        6.6965801503       29.3466021793
  C        10.7207092457        5.4670332199       27.4515530049
  H         9.6204191617        4.6409104559       29.1461582907
  H         9.3736400797        6.3687122358       28.8938497892
  C         9.8153080125        4.6046977130       26.5660161161
  H        11.7097142664        5.0499237492       27.5882531897
  H        10.9327226077        6.3631747165       26.8274235748
  C         8.6209644370        5.4437126818       26.1414081445
  H        10.4502942397        4.2050675957       25.7420269056
  H         9.4647247467        3.7621509038       27.1602961330
  C         7.4569528452        4.7354370381       25.4795784784
  H         8.2467176738        5.9877381786       26.9977373795
  H         9.0148260102        6.3123008250       25.5208774608
  C         7.0670235561        3.4173536299       26.1014217972
  C         7.9330257323        4.0061846733       24.2032709001
  C         6.1830602268        5.5287091761       25.4074064312
  C         7.2293273616        2.3236496594       25.2987036216
  C         6.5072463718        3.0894947854       27.3463531791
  C         7.8443586855        2.6761209254       24.1013872325
  C         8.2912987152        4.6333310348       22.9961123755
  H         6.4164769922        6.4484268972       24.8821278541
  H         5.9714640562        5.6630284575       26.4363704463
  C         4.9829469191        4.8166177045       24.7131118973
  S         6.7241619164        0.8687142855       26.0978888467
  C         6.2811052612        1.7607397546       27.5353882862
  H         6.3557092414        3.8221787749       28.0750792695
  C         8.2212689432        2.0050302581       22.9821897784
  H         8.2187234821        5.7178480244       22.8642851077
  C         8.6699720101        3.9833506876       21.9006249820
  H         5.1859220320        4.5465005567       23.6656629536
  H         4.7009878232        3.9566118168       25.2537785185
  C         3.6977127334        5.6285537398       24.6896169925
  C         5.7626147051        1.0642419465       28.7784202169
  C         8.6855073782        2.6331648467       21.8421679276
  H         8.1475079941        0.9368192510       22.9625980313
  C         9.0928686249        4.3748499051       20.6542430766
  H         3.0388744796        4.9652212533       24.1953567909
  H         3.8401023276        6.4898623336       24.0757143055
  C         3.0822788471        5.9957856141       26.0829219164
  C         5.9159409054       -0.3316409266       29.0174529191
  C         5.3073929164        1.9427899993       29.8576694240
  C         8.9848878611        1.9723109329       20.5458888939
  C         9.2497615229        3.3039729579       19.8206962602
  S         9.4939246141        5.8663430263       20.0272557885
  H         2.1823690248        6.6259467887       25.9992115203
  H         3.8666710853        6.5977708717       26.6056241471
  C         2.6679039055        4.7689578516       26.9232619104
  N         6.2412089854       -1.3666368050       28.0986627983
  C         5.7026660609       -0.8436599206       30.2912686253
  C         4.9734237399        1.4103824460       31.0892914682
  H         5.1507496634        3.0388019988       29.7730170138
  C         7.8844726512        1.0915455867       19.8494841275
  C        10.3100759145        1.2344101517       20.6645984572
  C         9.7625755860        3.6464524802       18.5367486026
  C         9.7949836935        5.0172505551       18.4826043460
  H         2.1516825135        4.0019982336       26.3225065041
  H         3.4575750840        4.1219596670       27.3142870174
  C         1.8032888264        5.1018550110       28.1575038699
  S         6.3855618820       -2.7620063527       28.9948360055
  N         6.0258547182       -2.1908145916       30.4635067465
  C         5.2488973749       -0.0255634039       31.3681505237
  H         4.6086889140        2.0022575690       31.8296269568
  H         7.9112606098        0.1069207239       20.2528214249
  H         8.2893616779        1.1070601440       18.8638646817
  C         6.4175240749        1.6364634191       19.9420741687
  H        10.5421449452        0.6327068383       19.7411542072
  H        10.0652585445        0.6072092256       21.5942700189
  C        11.5882610896        1.9741153021       20.9676202567
  H         9.8567706385        2.9031303970       17.7806503346
  C        10.0672732678        5.7685226810       17.2050628713
  H         1.0126458029        4.3576439196       28.4201362739
  H         1.3012036175        6.0428608306       27.8497240279
  C         2.5016454761        5.3511137613       29.4807601949
  C         5.0850341692       -0.5498829175       32.6537844631
  H         6.3330417715        2.3700646437       20.7359024389
  H         5.9601432445        0.7486220838       20.2571838623
  C         5.6957381488        2.0123994723       18.6056181230
  H        11.4476089141        2.8979661251       21.5162546021
  H        11.9259125877        2.3145692176       19.9900385380
  C        12.6438334509        1.1978776562       21.6145536746
  C        10.1001745594        7.1593152284       17.0727245070
  C        10.2580436822        5.0820989239       15.8424852196
  H         3.1674829352        4.4841704954       29.7463207399
  H         3.1322726270        6.2426833878       29.3485697763
  C         1.5506430575        5.6001168242       30.6376278140
  H         5.1837109769       -1.5495157187       32.6289632014
  C         4.7022316901       -0.1305004676       33.9027570850
  H         5.9806872344        1.2057984474       17.9922822021
  H         6.0956797590        2.9089108609       18.1889612899
  C         4.1475936255        2.1068463380       18.6257077376
  H        12.4024042045        0.8649355139       22.6041924324
  H        12.7472923710        0.2563794025       21.0667532681
  C        14.0437221355        1.9337341050       21.5887050515
  N         9.7989286879        8.0143508967       18.1538852750
  C        10.4451421367        7.9055969044       15.9615100190
  C        10.5487364062        5.8407263018       14.7414280423
  H        10.0265364891        4.0098480745       15.8197604614
  H         0.9271929438        4.7551774070       30.7649060108
  H         1.9430385061        5.9194031147       31.6328207496
  H         0.9293138188        6.4389544384       30.3289806841
  S         4.2875900322        1.4101218647       34.4757161481
  C         4.8449965996       -1.2034722710       34.9444943949
  H         3.7345183857        2.8510198197       19.2753842662
  H         3.8837060875        2.4463836032       17.6211000323
  C         3.4122209610        0.9083586593       19.0306985686
  H        13.9698542021        2.8529926150       20.9445589311
  H        14.6553136532        1.2513964131       21.0765431827
  C        14.5458103913        2.1639000949       22.9844175201
  S        10.1328941279        9.5449187016       17.7302483571
  N        10.4966414552        9.2619519923       16.1794368463
  C        10.8032909982        7.2922279685       14.7988298047
  H        10.6405498317        5.4284700301       13.7866014943
  C         4.4214810145        0.7754938343       36.0240697264
  N         4.6252732968       -0.5502037282       36.0924183210
  O         4.8411428099       -2.4194468091       34.8042191141
  H         2.4109177695        1.2254806709       19.1885177510
  H         3.7588340089        0.5780828507       19.9942242339
  C         3.3944155738       -0.2698824575       18.0444595346
  H        13.8621740108        2.7383305850       23.5626848119
  H        14.6004497461        1.2043397979       23.4619979818
  C        15.9268282665        2.8527513390       22.9589969202
  C        11.1204888982        8.1706250919       13.6999283345
  S         4.1368170342        1.6559842447       37.4483513563
  C         4.8663067000       -1.1885988797       37.3645459461
  H         3.4061316651        0.1143098720       17.0033458675
  H         4.2892970472       -0.9451739670       18.0840317797
  C         2.2154450730       -1.1620784596       18.4134582023
  H        16.1746385246        3.0742826955       24.0243749164
  H        15.7613505164        3.7376404547       22.5092926598
  C        16.9716737451        2.1683059317       22.2389524574
  H        11.0434548470        9.2547169087       13.8961295605
  C        11.5798160657        7.8967867930       12.4447237977
  H         4.2194265228       -0.7875007177       38.0880211404
  H         4.3708706981       -2.1177596317       37.2671789035
  C         6.3997779249       -1.4323909721       37.8070854492
  H         1.3075054893       -0.6030185927       18.2394368981
  H         2.2622106754       -1.5209815951       19.4628302782
  C         2.1368726624       -2.4353608690       17.4826350788
  H        16.7515106321        1.1062561237       22.0033943750
  H        17.0477445966        2.6835993181       21.3287959979
  C        18.3043988151        2.0778301956       22.8453259664
  S        12.0042259269        6.4071018474       11.8888750801
  C        11.7496494562        9.0230215765       11.4701295434
  H         6.5387636737       -0.7241066633       38.7248434337
  H         6.4418334694       -2.5005444416       38.2030027199
  H         7.1399732916       -1.3377406620       37.0536220298
  H         3.0271625703       -2.8939487020       17.2298069504
  H         1.6586413700       -2.0225791837       16.5980389066
  H         1.4667771988       -3.1699263091       17.9711401047
  H        18.8617118987        2.9094899892       22.9622414265
  H        18.8565053755        1.2624620741       22.3142001594
  H        18.2069551554        1.8537485204       24.0060957097
  C        12.5751962002        7.2036291167       10.4218211318
  N        12.3630895976        8.5414265294       10.3463656886
  O        11.2437213979       10.1632429652       11.6491121976
  S        13.3153492888        6.3522674997        9.0767896096
  C        12.6562590412        9.3624381770        9.1308780697
  H        12.7878298829       10.4082576023        9.3794223265
  H        13.4989881830        9.1081810883        8.6044279709
  C        11.4256626448        9.2150084845        8.1649398285
  H        10.4688218596        8.7788051743        8.5447098469
  H        11.1540248640       10.2187132065        7.8378888108
  H        11.7352063019        8.6660329271        7.2346501893
  H        -1.9924996337       12.1902008029       17.3492728609
  C        -2.1254981893       13.2179684083       17.1000944116
  H        -1.1476395826       13.6411791246       17.0864264230
  C        -3.0974925820       13.9162301367       17.9294675149
  C        -2.4917933751       13.1699882700       15.6623380890
  C        -3.3570244162       13.2254004869       19.2567935775
  H        -2.6828395143       14.8731219350       18.2021806538
  H        -4.0114595811       14.0433116315       17.2821039392
  H        -1.6998608548       12.8365760523       15.1385897796
  H        -3.2597741281       12.4392433775       15.4241953686
  H        -2.6779913398       14.1744027869       15.2817831001
  C        -2.1073144053       12.9797563798       20.1037595100
  H        -3.8534251171       12.3081297620       19.1514717533
  H        -3.9703494182       13.9902277527       19.7396149413
  C        -2.5282171286       13.0486659693       21.6171367506
  H        -1.8054749934       11.9430696224       20.0433432194
  H        -1.1847675127       13.6557279657       19.9473817133
  C        -1.4079509985       12.5284249203       22.6112092446
  H        -3.5389256033       12.7051506898       21.7182576047
  H        -2.6037995972       14.1574145988       21.8561513312
  C        -0.1309768377       13.3847293177       22.9130723575
  H        -1.8994956533       12.2822746045       23.5471399072
  H        -1.2250485468       11.5700905976       22.2142708982
  C         0.9811711584       12.6711444326       23.7159547739
  H         0.2844584423       13.7059969634       21.9333537670
  H        -0.4009419261       14.3656096703       23.3802427196
  C         1.1848666316       11.3776250160       22.9198210401
  C         0.5441580705       11.9405863268       24.8883349116
  C         2.2051736243       13.6358947605       23.8823319832
  C         1.0195764831       10.2316331209       23.7730313089
  C         1.6998168193       11.0595339308       21.6514167060
  C         0.4553306503       10.5934332988       24.9974389082
  C         0.0608982565       12.6076241127       26.0122760452
  H         2.3520519696       14.0314189818       22.8236483695
  H         2.0122928414       14.4369743891       24.4732539024
  C         3.4949791250       12.9095181304       24.3168416573
  S         1.4907329068        8.8390370242       22.9465686790
  C         1.9022583430        9.7451722021       21.5220429711
  H         2.0516612480       11.7653574863       20.9393792782
  C         0.0160506171       10.0194001402       26.1845014049
  H         0.1804562491       13.6998458401       25.9574166179
  C        -0.2389343203       12.0860801127       27.2222436711
  H         3.6699748019       11.9581803256       23.7671460741
  H         3.3512300256       12.5579354498       25.3380778988
  C         4.7246172309       13.7449555165       24.3253592718
  C         2.4599554824        9.1475932282       20.2292214061
  C        -0.3593512488       10.7433988942       27.3253988479
  H        -0.0491409378        8.9403675224       26.2368330703
  C        -0.6106324539       12.5541685269       28.4285239784
  H         5.5024884549       13.2722810540       24.9379206016
  H         4.4599675355       14.6268000382       24.8089005287
  C         5.3955721389       14.0125002625       22.9936332962
  C         2.6363855144        7.7507049307       19.9578932337
  C         2.8329712782       10.0326082054       19.0806356341
  C        -0.8269622056       10.1318686108       28.5950808361
  C        -0.9168587278       11.4958464840       29.2928078261
  S        -0.8805356852       14.0855226467       29.1203579854
  H         6.1162969738       14.8068554689       23.1745671602
  H         4.7080499113       14.3291530899       22.2650638884
  C         6.1360602462       12.7884688994       22.5772537770
  N         2.3250318297        6.7613316943       20.8933622435
  C         2.9042683469        7.2336485421       18.7329484179
  C         3.0784551493        9.5413111930       17.7416251403
  H         2.8449937994       11.0412875758       19.2724716433
  C         0.2706670541        9.2488537290       29.3080334553
  C        -2.2146042428        9.4142641517       28.3705919848
  C        -1.3143155677       11.9564503643       30.5312796025
  C        -1.3144886760       13.3202249984       30.6890418425
  H         6.9229786160       12.5831213022       23.3384956186
  H         5.5914928622       11.9027667433       22.4970831620
  C         6.7671604849       13.1812320512       21.2306642977
  S         2.4952774923        5.2360062471       20.1945314728
  N         3.0051721174        5.7769042690       18.7403525261
  C         3.0620452524        8.0483379118       17.5911226704
  H         3.1936653764       10.2210610385       16.9255483296
  H         0.4804083191        8.3688288033       28.7121684250
  H        -0.1949890243        8.8050258084       30.2227928312
  C         1.4977455066       10.0890504452       29.6945803611
  H        -1.9558790066        8.6621688159       27.5738768057
  H        -2.5644442407        8.9588710624       29.2069627487
  C        -3.3458100987       10.3040232248       27.8282155335
  H        -1.4502633485       11.2269473667       31.3099853622
  C        -1.5522867226       14.0655091757       31.9511585898
  H         7.3976168038       12.2877030966       20.9903877094
  H         7.3556507529       14.0794939424       21.3114543285
  C         5.7905170782       13.3096011002       20.0373896419
  C         3.2118832386        7.4214075696       16.2949987645
  H         1.8984530518       10.7856292351       28.9625240370
  H         1.2389603668       10.6673090668       30.6450113774
  C         2.7472403724        9.2344913893       30.0800588713
  H        -3.0338449603       10.8982347826       27.0632339020
  H        -3.6267900885       10.8452132985       28.6799303810
  C        -4.6323316340        9.5624060741       27.5740685351
  C        -1.7063951123       15.4940086773       32.0052440959
  C        -1.9613769657       13.3631434532       33.2083181556
  H         5.0437003827       12.5198414350       19.9784461572
  H         5.3335971440       14.2329353984       20.1754350290
  C         6.4824744825       13.2861050485       18.6903227084
  H         2.9851861444        6.3819199241       16.3140670446
  C         3.5415328229        7.7486600056       14.9814320871
  H         2.9837527593        8.6818385607       29.1820688153
  H         2.4332301844        8.5585857246       30.8534740312
  C         4.0540726813        9.9178955216       30.3973803968
  H        -4.4170401932        8.5883531371       27.0974540947
  H        -5.1948436613        9.3081093793       28.4821614564
  C        -5.6557980563       10.4050176385       26.7844489133
  N        -1.3980465401       16.4740593617       30.9891496281
  C        -2.0265287265       16.1449258115       33.1834279188
  C        -2.4072098232       14.0557581180       34.3543958213
  H        -2.0060258310       12.2723332561       33.2319969944
  H         5.6571935243       12.9392090486       18.0134956731
  H         6.6903221215       14.2829269500       18.3605997697
  H         7.3871458611       12.5519796613       18.6927869826
  S         3.6991924243        9.3326560192       14.4077920517
  C         3.7117090753        6.6638600059       13.9681867346
  H         4.3157856527       10.6715989023       29.6381068399
  H         3.8849674683       10.4859383563       31.3346563128
  C         5.2253176151        8.8989450484       30.5466827378
  H        -5.1275736711       10.6376306104       25.8912460822
  H        -5.8309764857       11.4493515101       27.2236302869
  C        -6.9156484226        9.6425676481       26.5327641575
  S        -1.3708794358       17.9632134522       31.6879330472
  N        -1.9871785706       17.5443998245       33.1496368083
  C        -2.4209845460       15.4703199926       34.4029670871
  H        -2.8340546485       13.5170585126       35.2064082771
  C         4.1589737158        8.6159211354       12.7796665253
  N         4.2090688632        7.2326602664       12.8188730228
  O         3.4613970934        5.4705096854       14.1698538386
  H         6.0673453362        9.5532151730       30.7400591470
  H         5.4723248313        8.4700455023       29.6396069253
  C         5.0583187751        7.8579549845       31.6650108462
  H        -6.7295111609        8.7834940672       25.8638885883
  H        -7.3783363868        9.1807868216       27.3582149035
  C        -7.8721616748       10.4897442820       25.7174009742
  C        -2.8261958605       16.2628855459       35.5684794918
  S         4.7855559975        9.3482931655       11.3290791722
  C         4.3263577037        6.3804524605       11.6314488833
  H         4.7744534162        8.4639031171       32.5607550339
  H         4.2939949399        7.2593485702       31.4777306524
  C         6.2898482819        6.9447577825       31.8938845158
  H        -7.4497512401       10.6046798257       24.6815221700
  H        -8.0248282527       11.4380837137       26.2237430188
  C        -9.1870155472        9.7531043043       25.6382369741
  H        -2.1235967727       17.0753669536       35.5789472626
  C        -3.3511349579       15.9591201536       36.7778501131
  H         5.1380714889        6.6690297469       10.9538728539
  H         4.5202098170        5.3902206371       11.9369755137
  C         3.0646799312        6.4268537490       10.8032993570
  H         6.4345042268        6.5833024420       32.8756106625
  H         7.1435336654        7.4084819941       31.5827447195
  C         6.2887305019        5.6698141818       31.0703016448
  H        -9.8773290246       10.1842021228       24.8350300212
  H        -8.9645006109        8.7451342221       25.3928932145
  C        -9.9474956845        9.9464992282       26.9877035854
  S        -4.0075451648       14.5461846437       37.2934578959
  C        -3.2599119743       17.0289972162       37.7810692078
  H         2.1371459992        5.9382130253       11.2492246722
  H         2.8138551646        7.4548244906       10.5455522806
  H         3.1727099688        5.9628896673        9.8167573117
  H         5.3013092425        5.4541375086       30.6836268098
  H         6.7031517696        4.8150771792       31.5495730875
  H         7.0259283307        5.8632677862       30.3063727351
  H       -10.4005114702        8.9454118438       27.2835068320
  H       -10.7490878499       10.6822349898       26.9586815830
  H        -9.2344218574       10.1530796606       27.8086002592
  C        -4.2585666397       15.3696491435       38.8477418182
  N        -3.8234390049       16.6085561726       38.9522561656
  O        -2.7801846572       18.1480368566       37.5505935337
  S        -4.7940038220       14.7099470979       40.3742676314
  C        -3.7280093929       17.3397683811       40.2016393227
  H        -3.6734339509       18.3672307667       39.8182582656
  H        -4.6224029067       17.3256460027       40.8822297044
  C        -2.3724594618       17.0934430437       40.9002488867
  H        -1.7092664344       17.9289521051       40.9884936565
  H        -2.6026794318       16.5030861107       41.7811805487
  H        -1.8394162123       16.3879430760       40.2465365025
