352
 i =    40600, time =    40600.000, E =        24.7508844228
  H        11.3677707631        7.0559074698       32.7295391978
  C        11.1703236166        6.0339180597       32.6279403122
  H        12.1398143879        5.6182791531       32.5600335603
  C        10.2883774412        6.0321447311       31.3184295575
  C        10.4193745995        5.4865606774       33.8282145033
  C        11.0293427756        5.5733612884       30.0620322586
  H         9.4346420847        5.4438178802       31.3837216813
  H         9.9386193896        7.0027146288       31.1458622254
  H        10.2604947239        4.4508384386       33.8249300857
  H        10.7772462825        5.7846210469       34.7923376891
  H         9.4002941400        5.9364198140       33.8520305792
  C        10.1353875849        5.9442396625       28.8019065630
  H        11.1640139926        4.4591302105       30.0356860119
  H        12.0226181527        6.1728251562       30.0687516047
  C        10.7755261367        5.7848209892       27.3473596558
  H         9.1895474565        5.4129509954       28.9665197518
  H        10.0146122943        6.9967858229       29.0207721130
  C         9.6946645991        5.1134290417       26.5133834480
  H        11.5323467088        5.0151531995       27.5721048782
  H        11.1448860372        6.7586055497       26.9471190053
  C         8.4945881135        5.9814458896       26.3242259935
  H        10.2173632129        4.9562486409       25.5496213264
  H         9.3495487203        4.1664960140       26.8676882239
  C         7.2818735178        5.4079930153       25.5718561283
  H         8.1558611637        6.2988386790       27.2623346314
  H         8.8654738688        6.9426256457       25.8085035365
  C         6.9407403908        4.0639070788       26.2107577767
  C         7.7475093823        4.7395128262       24.3117737439
  C         6.0345618862        6.3274925968       25.5541389304
  C         7.2313562387        2.9337491402       25.4287441984
  C         6.4025054151        3.7114169868       27.4787016314
  C         7.7957558135        3.3615215552       24.2487570072
  C         8.2622253454        5.4064346864       23.2419423726
  H         6.3098955737        7.1647097074       24.8424712376
  H         5.9686609218        6.7314684058       26.5521988795
  C         4.6965948908        5.6468720987       25.1082653184
  S         6.8067866112        1.4428534186       26.2550144310
  C         6.1609282870        2.3490172274       27.6233968602
  H         6.1878178995        4.4362128610       28.2347586916
  C         8.2729776788        2.8386093159       23.0997748757
  H         8.1449844692        6.5021130307       23.2362084130
  C         8.7882838376        4.8273181335       22.1195307846
  H         4.7787305908        5.2625845518       24.1099411036
  H         4.4700493165        4.8002507215       25.7768826756
  C         3.4259376820        6.5113617563       24.9328022116
  C         5.6811337533        1.6670562016       28.8528880389
  C         8.7424046646        3.4905686110       22.0195447009
  H         8.1996058402        1.7358210932       22.9853427534
  C         9.2128741555        5.2496273028       20.9411710860
  H         2.8047178268        5.9224762932       24.1628572096
  H         3.6786282161        7.4295206080       24.3872754988
  C         2.6113027732        6.6819180022       26.2770034307
  C         5.7510640229        0.2822504163       29.1250809320
  C         5.1443551319        2.5399676495       29.9361424181
  C         9.1916779744        2.7762623500       20.7591705748
  C         9.4682722602        4.1773547172       20.0845082714
  S         9.4164401240        6.8245544527       20.2285823934
  H         1.7774234466        7.3483262326       26.1794549577
  H         3.3860579591        7.2061953379       26.8817230991
  C         2.1805984411        5.3412185128       26.9887469274
  N         6.0416846944       -0.6823096531       28.1584691882
  C         5.4781341572       -0.2631288612       30.3646385394
  C         4.9378607683        2.0136471056       31.1991576815
  H         5.0716044314        3.5831367619       29.7841178426
  C         7.9772542284        2.0188587175       20.0729208182
  C        10.5142516590        1.9174079933       20.9544949588
  C         9.9221897886        4.5959113440       18.8648862787
  C         9.8932204832        6.0170009535       18.7660808698
  H         1.6714706490        4.8090455183       26.1628468494
  H         3.1040401016        4.7438873487       27.2119678053
  C         1.3175910505        5.4346704337       28.2589530036
  S         5.9890639180       -2.1490931185       28.8447085073
  N         5.6083572285       -1.6979500779       30.3960011447
  C         5.1506696929        0.5740538912       31.4579393929
  H         4.6924009963        2.7121332408       32.0245641318
  H         7.3208585118        1.6158479287       20.8038806056
  H         8.3693130663        1.2333089460       19.4543202419
  C         7.0822582068        2.8249919871       19.1261089794
  H        10.7871129580        1.3269358266       20.0588926239
  H        10.5670471277        1.1747927951       21.7601769836
  C        11.7563806199        2.7651576816       21.2047114415
  H        10.1832637972        3.9079749133       18.1602336391
  C        10.1200502391        6.7154528416       17.5141652388
  H         0.8092791724        4.4867856794       28.4319640807
  H         0.6110284218        6.2437394943       28.0672443295
  C         2.2058260139        5.7350919861       29.4713857095
  C         4.9298691261       -0.0416722574       32.7465125314
  H         7.5659259451        3.0455555850       18.1835856611
  H         6.8334086960        3.8470601368       19.4584303343
  C         5.8094594394        2.0643014403       18.7445004565
  H        11.5697638370        3.4229092383       22.0755726991
  H        12.0486196873        3.3601909518       20.3775692199
  C        13.0055242015        1.9182753247       21.6802517606
  C        10.0853796832        8.1232618991       17.3914969170
  C        10.3904500008        5.9889052017       16.2465970326
  H         2.9204094135        4.9260626279       29.6335411518
  H         2.8303959778        6.6294608289       29.1704687362
  C         1.3669878999        5.7106980250       30.7980116949
  H         5.0153090509       -1.0845303930       32.6918094013
  C         4.6027120640        0.4044226120       33.9939215195
  H         5.2334922471        1.8782121206       19.6735771150
  H         6.1575113331        1.1877093927       18.2034194874
  C         4.9404425776        2.8238273121       17.7130868921
  H        12.9057617483        1.7577159603       22.7649244996
  H        13.0142067623        0.9662454983       21.1854630776
  C        14.3227716442        2.6304191788       21.3724875549
  N         9.9783452850        9.0499977115       18.4455447415
  C        10.3611637811        8.7581352248       16.1755186319
  C        10.4750302247        6.6582755315       15.0164374008
  H        10.4874134150        4.9440228717       16.2745241959
  H         0.6231698314        4.9499439426       30.9380297076
  H         2.0654919619        5.4665005923       31.6294802166
  H         0.8613031315        6.6646791098       30.9434707764
  S         4.3497355497        2.0283228991       34.5002561750
  C         4.3879139621       -0.6293022938       35.0235699549
  H         5.2410651153        3.8127510324       17.8227374070
  H         5.3563745609        2.6041262190       16.6901233803
  C         3.3673518339        2.7197551213       17.7531933028
  H        14.3015005761        3.5210731938       20.8366220955
  H        14.9543061724        1.9951074533       20.6664966283
  C        15.0298344130        2.7480353333       22.6847541243
  S        10.0711882399       10.5552623630       17.8553255836
  N        10.4148520769       10.2117824430       16.2627093468
  C        10.6028159151        8.1513276336       14.9520590198
  H        10.6888917731        6.0926889395       14.0947049203
  C         4.0330879522        1.4174685816       36.0975531893
  N         4.0587569545        0.0442961156       36.1723551536
  O         4.6056921388       -1.8469657204       34.8207015858
  H         2.8268124341        3.6181397431       17.5094189095
  H         3.2265672691        2.7184695481       18.8523120584
  C         2.6308101295        1.4926738226       17.0983693517
  H        15.6391331258        3.6324408540       22.6277279862
  H        14.2781114300        3.1206564996       23.3527854946
  C        15.7722854986        1.5180167175       23.3563937273
  C        10.9157822202        8.9011377110       13.7617758627
  S         3.5362216421        2.3649348628       37.4511990348
  C         4.0413756080       -0.6554906543       37.4883295551
  H         1.6372270094        1.4304241221       17.5921855758
  H         2.3196710595        1.7814934020       16.1151184265
  C         3.2477095216        0.0761774416       17.3018198389
  H        15.8705083842        0.7014693886       22.6635429695
  H        15.1677144784        1.2225142589       24.1906493292
  C        17.1347378573        1.9528234460       23.7589926740
  H        10.7441078952        9.9193986489       13.8822083317
  C        11.4786435346        8.5268841583       12.5721648435
  H         3.4417818611       -0.0364311472       38.1831203321
  H         3.5430623758       -1.6086439171       37.4110180969
  C         5.5101622986       -0.8382875284       37.9736236314
  H         3.5714208389        0.0089336730       18.3213789660
  H         4.1003455736       -0.1273815785       16.6273430778
  C         2.2783088921       -1.0770227767       16.8885256562
  H        17.0517115396        3.0228461790       24.0586589591
  H        17.4568071440        1.3937919811       24.6232823803
  C        18.1516327937        2.0516092419       22.5659937831
  S        11.9614133317        6.9517167656       11.9953755224
  C        11.5068706146        9.6670786717       11.6018761332
  H         5.4098819059       -1.4712966327       38.8550682972
  H         6.1081997678       -1.5324041341       37.3800083349
  H         5.9655855825        0.1501546902       38.1869423591
  H         1.5562173418       -0.6183933290       16.2369803243
  H         1.8571730333       -1.7034180596       17.7109739798
  H         2.9417933754       -1.8679878504       16.3883694942
  H        18.9535818907        1.3687290554       22.5966497090
  H        18.7320433231        2.9227650681       22.6842190797
  H        17.6857997806        2.0089851974       21.6121620559
  C        12.2734736652        7.8120472313       10.5271639656
  N        11.9813279524        9.1654959490       10.4818198404
  O        11.0286610231       10.7733350262       11.8304596822
  S        12.9064103711        7.1353952692        9.0666312072
  C        12.1105446848        9.9415301193        9.2176315745
  H        12.0218919539       11.0112919359        9.3626356592
  H        13.1156122292        9.8008292719        8.7393050137
  C        10.8907530648        9.7007335553        8.2588392197
  H        11.3024631511        9.5386124851        7.2249152932
  H        10.2776831348        8.7837409410        8.4084713936
  H        10.1713771522       10.5460881628        8.3195258230
  H        -2.4832680165       15.1469439711       16.0918915603
  C        -2.6940031600       14.1814694284       16.4371280328
  H        -3.6701106815       14.2654772271       16.9066315963
  C        -1.7072380645       13.8024928326       17.5563972535
  C        -2.7006132593       13.1519227296       15.2598764001
  C        -2.1615660209       14.1672889192       18.9414255287
  H        -1.6819336423       12.7524565277       17.6625808302
  H        -0.6467542502       14.2506780525       17.4702056393
  H        -2.6570104926       13.4603295964       14.2172244589
  H        -1.7915754045       12.5087618231       15.3310982963
  H        -3.5688453276       12.4434326831       15.4051484886
  C        -1.6149652150       13.2234712836       20.0011492833
  H        -3.2507615191       14.3430849772       18.9336080637
  H        -1.6914948559       15.1446346619       19.1349024802
  C        -2.2847483499       13.6081328200       21.2896706977
  H        -1.8333027221       12.1941727414       19.7622566887
  H        -0.5101471091       13.4436390580       20.0583996970
  C        -1.4379931245       12.9772552345       22.3117515485
  H        -3.2945579508       13.2544970771       21.2064640357
  H        -2.4024460755       14.6726504945       21.3304298927
  C        -0.2448271747       13.7976143933       22.7329037501
  H        -2.0260377813       12.7643413750       23.1482178422
  H        -1.1613488392       12.0580761487       21.9143119221
  C         0.8614729895       12.9960374869       23.3762578118
  H         0.2502279154       14.3348408845       21.9286618594
  H        -0.5661468507       14.5263165909       23.4391316237
  C         1.3137918707       11.7076118847       22.7272492278
  C         0.5681675712       12.2711014059       24.6122087580
  C         1.9903029374       13.9970033572       23.4842845207
  C         1.0892610869       10.5665238755       23.4939985815
  C         1.6901458891       11.3851648355       21.4590318356
  C         0.5658433737       10.9466222590       24.7419152319
  C         0.0654668594       12.9183090729       25.7623764545
  H         2.1770480956       14.3757368718       22.4984737897
  H         1.6300185581       14.7740104217       24.1109111467
  C         3.2520571899       13.4959320799       24.1491096877
  S         1.5533804883        9.1316478868       22.6954838772
  C         1.9244185678       10.0680126403       21.2820032148
  H         1.8367354270       12.2458701193       20.7886742743
  C         0.1916053891       10.3772519603       25.9016881574
  H         0.0233536260       14.0211221715       25.8358665175
  C        -0.2969981082       12.3754527352       26.9448236338
  H         3.6069245363       12.5976919223       23.6622811318
  H         3.0358577408       13.3088194969       25.1495817473
  C         4.3568924976       14.4967616059       24.1967591182
  C         2.4383484734        9.4361011623       20.0082291853
  C        -0.2780952101       11.0364538201       27.0572844149
  H         0.1415164601        9.3008655201       26.0066265063
  C        -0.7103157830       12.8558260164       28.1526608693
  H         5.0709636681       14.1352586941       24.9510796184
  H         3.9855459179       15.4432004199       24.5150101036
  C         5.1536882054       14.7784974078       22.9900699762
  C         2.5591367613        8.0552472819       19.7375843068
  C         2.8177588233       10.3699742610       18.8884629489
  C        -0.6739936871       10.4013526288       28.3187345487
  C        -0.9516525962       11.8163779972       28.9895030287
  S        -0.9310900260       14.4195491252       28.9208122800
  H         5.9809499431       15.3867300949       23.2583680403
  H         4.4742130134       15.2356478817       22.2221912658
  C         5.7478143090       13.5503216810       22.3197201450
  N         2.3180159396        7.0503507268       20.7315187121
  C         2.9786039287        7.6210945798       18.5066685037
  C         3.2897150632        9.9324772473       17.7207304088
  H         2.7489034483       11.4033059310       19.0478835024
  C         0.3812737202        9.6062340707       29.1421129868
  C        -1.9817454784        9.6756641869       28.0666573779
  C        -1.3027555820       12.1771665719       30.2597571824
  C        -1.3019700252       13.5490577324       30.4198872002
  H         6.1417691761       12.9227989811       23.1890519591
  H         4.8908869098       13.0121916782       21.8623234516
  C         6.8548356459       13.7926045684       21.2670731367
  S         2.6715647239        5.6498126930       19.9871735490
  N         3.0462138038        6.2136958594       18.5024041632
  C         3.2402073268        8.4506221378       17.4035133589
  H         3.4459197908       10.5605948917       16.8564192671
  H         0.4484278017        8.6926487027       28.5035822500
  H        -0.1273986136        9.3051528184       30.0094405083
  C         1.8074741617       10.2234936332       29.2658183401
  H        -1.8492387155        9.0695876413       27.1115473797
  H        -2.1315488369        8.9612726921       28.8685129367
  C        -3.2028999998       10.5361351142       27.9232140032
  H        -1.2960482173       11.4381503575       31.0719220489
  C        -1.6379870486       14.2424147126       31.6641413129
  H         7.3977899555       12.8806751186       21.0674150483
  H         7.5696660234       14.4905442832       21.6682268429
  C         6.1653325938       14.3862439535       20.0545037536
  C         3.5348662859        7.7673243267       16.1582372504
  H         2.3289888152       10.2240223779       28.2747325354
  H         1.6836737308       11.3175373106       29.4058723876
  C         2.6464243459        9.6354018264       30.4651453497
  H        -3.0480160407       11.4320037981       27.2229918286
  H        -3.4666737297       10.9512367734       28.9166369397
  C        -4.2752672544        9.6178013616       27.2908026540
  C        -1.6950829225       15.6168460626       31.8655659774
  C        -1.9386992751       13.4542926439       32.9350945024
  H         5.7544835570       15.3742251151       20.2461517349
  H         6.9394944756       14.6441311036       19.3552895007
  C         5.2386122188       13.3612378192       19.2976987043
  H         3.3249768586        6.7475367122       16.2393519104
  C         3.7125023839        8.1869987545       14.8709446597
  H         2.5773462578        8.5615690319       30.6713748231
  H         2.2141071309        9.9772683569       31.4737951660
  C         4.0747606872       10.1688671633       30.4000803668
  H        -3.9722316723        8.7905996239       26.6683973264
  H        -4.8261178678        9.2061544216       28.1041828487
  C        -5.2566075962       10.4010895208       26.3398222018
  N        -1.6578370472       16.6131116032       30.8389592380
  C        -2.0689592875       16.1458933519       33.1091885777
  C        -2.2447621124       14.0449934139       34.1719854293
  H        -1.8334211898       12.4075146454       32.7544961545
  H         4.2587709429       13.8433651279       19.1219589406
  H         5.7122976661       13.0032231121       18.3756605109
  H         5.1401222544       12.4383197886       19.8215461177
  S         3.8769666399        9.8255435896       14.3636395044
  C         3.7461774282        7.2140464005       13.7684244910
  H         4.0987365906       11.0101296419       29.7130673064
  H         4.4840158650       10.4868558702       31.3111692377
  C         5.0063656349        9.0851423816       29.8226258098
  H        -4.9603907424       10.3763387212       25.2672043606
  H        -5.2272646112       11.4540328297       26.7494694448
  C        -6.6500096630        9.9590410430       26.4689866159
  S        -1.7825977913       18.0961997595       31.4874340920
  N        -2.1226052576       17.5407147308       33.0004185396
  C        -2.3575507576       15.4904495855       34.2840103859
  H        -2.3619079602       13.3960937930       35.0144301398
  C         4.1999317576        9.1997790223       12.7373981587
  N         3.9892716447        7.8301334072       12.6030945829
  O         3.5641953050        5.9910321512       13.9007960302
  H         5.7813972898        9.5394274760       29.2025610301
  H         4.4311386983        8.3980269179       29.1917554333
  C         5.6157371233        8.2800039284       31.0056989169
  H        -6.6794555614        8.9189355211       26.2048482089
  H        -6.8841956971        9.9830599161       27.5310237294
  C        -7.5775109887       10.7530680813       25.6718814684
  C        -2.7589105177       16.2337209546       35.4293660020
  S         4.4794165993       10.1526598083       11.3092572906
  C         3.9974427511        7.1271744573       11.3571982608
  H         6.2737748345        8.9294146768       31.6402830551
  H         4.7973619049        7.8040207198       31.5112796416
  C         6.4671692043        7.1565181243       30.3787966086
  H        -7.1327224948       11.0436955235       24.7073930021
  H        -7.6572034367       11.6648130215       26.2322049464
  C        -9.0003784765       10.1803881576       25.6008747409
  H        -2.7327796892       17.2817995556       35.3390509133
  C        -3.1560337099       15.8120791655       36.6898159291
  H         4.4117699971        7.6470915802       10.5137518097
  H         4.6534403391        6.2602186887       11.4840775277
  C         2.5616978652        6.6570762308       11.0052246963
  H         7.4285175052        7.5459972604       30.0935489755
  H         5.9326892404        6.7488429409       29.4496409389
  C         6.4828334147        5.9471145840       31.3411223741
  H        -9.6773234007       10.7281825367       24.9866314917
  H        -8.9974502426        9.1653656231       25.1690524282
  C        -9.5050780576        9.7808412357       26.9748074306
  S        -3.6347523560       14.2410047115       37.1257802096
  C        -3.2715369235       16.8890683367       37.6939763119
  H         1.7422447509        7.2731593430       11.4450406338
  H         2.4956946721        6.8325436078        9.9298807022
  H         2.4299254994        5.5744703459       11.1607634009
  H         6.9604712998        6.0643520995       32.3393449580
  H         7.1871834884        5.2227592452       30.9345766867
  H         5.5422323442        5.4633974282       31.4487436928
  H       -10.5918899831        9.7688043157       26.9833974778
  H        -9.1550894077       10.4233464309       27.7846480799
  H        -9.1195170922        8.7380936588       27.1761104228
  C        -4.0854275783       14.9187794802       38.6702913860
  N        -3.8035497202       16.2832429814       38.7880415171
  O        -2.9842202242       18.0902315769       37.5615906759
  S        -4.9310281647       14.0025433764       39.9612093585
  C        -4.1070199777       17.0752414076       40.0096864788
  H        -3.9327366585       18.1446970723       39.9201384767
  H        -5.1642781702       16.9576204527       40.3070662821
  C        -3.2510391150       16.6773062699       41.1941338264
  H        -2.3263896777       16.2136284946       40.7703117273
  H        -2.9533955027       17.5583510694       41.8279319810
  H        -3.7090101627       15.8676437732       41.7583785508
