352
 i =    22100, time =    22100.000, E =        24.5068854998
  H        11.8481305642        7.0757168456       32.6887693087
  C        11.3923755526        6.1136861581       32.3174490713
  H        12.1296295022        5.3439583978       32.2580721074
  C        11.0292467260        6.4749804445       30.8483042793
  C        10.1347137043        5.6872757292       33.1412096279
  C        10.3634166827        5.3334922443       30.1720963335
  H        10.3658598837        7.3174020214       30.9592442925
  H        11.9674352667        6.7466311530       30.3397651676
  H        10.1707073146        6.0163767331       34.1685129607
  H         9.2179686505        6.0292591218       32.6599503113
  H        10.1209167562        4.6394953875       33.1600048300
  C         9.5696628738        5.6799756789       28.9284568518
  H         9.6913437030        4.8360417892       30.7887637271
  H        11.0154715856        4.5413993287       29.8447289639
  C        10.3646546381        5.6498074667       27.6900246475
  H         8.7300181344        5.0644058358       28.8205821203
  H         9.0612418898        6.6479867427       28.9532528305
  C         9.4955246711        4.9207494001       26.6446722650
  H        11.2300620187        5.0049329013       27.8873613944
  H        10.5998789895        6.5796279780       27.3649589381
  C         8.2506523987        5.7730164358       26.2453380713
  H        10.1200202715        4.6589560513       25.7834593061
  H         9.1947797278        3.9766705244       27.0408918049
  C         7.1551559187        5.0281909609       25.5641393555
  H         7.8942817108        6.3788747512       27.1177563405
  H         8.4855007392        6.6360744569       25.6177844377
  C         6.8264615693        3.6455470351       26.2224018944
  C         7.5274921261        4.2720172649       24.3125791550
  C         5.9177392101        5.9534040272       25.2736555063
  C         7.0342094401        2.5479159872       25.4126548975
  C         6.3319048871        3.2811293607       27.5086387747
  C         7.4522639641        2.9492459462       24.1762679037
  C         7.8898091039        5.0011787441       23.1827448937
  H         6.1799779662        6.8300367962       24.6197782716
  H         5.6679907136        6.3732788681       26.2494672155
  C         4.6807947103        5.2491296851       24.6765962149
  S         6.7236257803        1.0485471647       26.2236462934
  C         6.2769323321        1.9421995557       27.6490680388
  H         6.0748812324        4.1024276177       28.2138656549
  C         7.8230853758        2.3469476594       23.0394818109
  H         7.9057383864        6.0593785430       23.2570495435
  C         8.2632764539        4.4223142830       22.0173817976
  H         4.7512707298        5.0137987937       23.6914053067
  H         4.5227097196        4.3242658659       25.2098265123
  C         3.4031251502        6.0268067624       24.8717838418
  C         5.7953743550        1.2868747913       28.8950247105
  C         8.2159668531        3.0574194356       21.8806283213
  H         7.7693132705        1.3008233719       22.9774152158
  C         8.7197037511        4.7989032669       20.7628794889
  H         2.6097745928        5.5466611365       24.2411359314
  H         3.6603269475        7.0567951855       24.5933662204
  C         2.9383236745        6.0176484554       26.3450949317
  C         5.7644183120       -0.1397428980       29.0926513806
  C         5.2960912244        2.1330143808       30.0030033832
  C         8.6221398710        2.4214701966       20.5751799429
  C         8.9290001941        3.7563016157       19.9131429956
  S         8.8978346706        6.3334464813       19.9843774498
  H         2.1913972717        6.7984075773       26.4614827586
  H         3.8152253910        6.1868904285       27.0400558879
  C         2.0028953971        4.8624186020       26.7705739075
  N         6.2587869821       -1.0938101872       28.1698029722
  C         5.4133008752       -0.6895232246       30.2545855146
  C         4.9603319723        1.5465845152       31.2305064761
  H         5.1593955029        3.2115049865       29.9718367010
  C         7.3618992137        1.6610207510       19.9904129525
  C         9.9965146011        1.5908811549       20.6637366778
  C         9.3604099387        4.1857922299       18.6909911963
  C         9.4136053499        5.5485285508       18.5500226064
  H         1.3332166557        4.6680135134       25.8960390815
  H         2.5866226138        3.9435104417       26.8091837299
  C         1.1142716834        5.1422946781       27.9815280402
  S         6.0429600017       -2.6086972589       28.8546889527
  N         5.5531924690       -2.1025768427       30.3334734235
  C         5.0532190808        0.0606337062       31.4287560245
  H         4.7000667593        2.1835356994       31.9967828782
  H         6.9264328158        1.0379255566       20.7772124792
  H         7.6682220312        1.0543234895       19.1432904409
  C         6.2330585523        2.5239821152       19.4113432637
  H        10.2027026420        1.2765614934       19.6278024801
  H         9.8926980535        0.6803836451       21.2446203728
  C        11.2783041764        2.2898142426       21.1919145788
  H         9.4675817282        3.3548571880       17.9988483675
  C         9.6532396115        6.2442921908       17.2266612907
  H         0.2939865692        4.3736303612       28.1544611148
  H         0.6049009252        6.1411520779       27.7715410140
  C         1.9460724289        5.3346012227       29.1953715221
  C         5.0751461702       -0.5742143412       32.6615179690
  H         6.5997278270        3.1963647675       18.6415322137
  H         5.6995598058        3.1744324767       20.1758138439
  C         5.1560037470        1.5696802392       18.7186126264
  H        11.1421429250        2.6736921686       22.1769031451
  H        11.4314094158        3.2377266931       20.6484118070
  C        12.4614034006        1.3430965945       21.2033756225
  C         9.7200216164        7.6383209255       17.0431785021
  C         9.8483061784        5.4368159419       16.0466604708
  H         2.4782184213        4.4715691241       29.2875094448
  H         2.7517843879        6.0912508354       28.9943882427
  C         1.1379652107        5.6965060783       30.4830138197
  H         5.3661757213       -1.5831939206       32.6701397719
  C         4.6740165745       -0.1599286041       33.9113443147
  H         4.5922538037        1.0808478216       19.4874076426
  H         5.6735487000        0.7790661506       18.1909129302
  C         4.1480351252        2.2972701704       17.8982057967
  H        12.5392625704        0.9325129381       22.1736428313
  H        12.2559115674        0.4849672938       20.6192271530
  C        13.7778316292        1.8480235758       20.6201764025
  N         9.6514175955        8.5541210715       18.0844327312
  C        10.0063032160        8.2067651989       15.8387208233
  C        10.1471710944        6.0250664653       14.7991779971
  H         9.6282831911        4.4097612249       16.1368594632
  H         0.3944599085        6.5363297475       30.2451734047
  H         0.5319353132        4.8874953063       30.7470682878
  H         1.8778674600        5.8728947702       31.3567638546
  S         4.1627209802        1.4044566843       34.3966754968
  C         4.7041373773       -1.1385262061       34.9729441978
  H         3.9120005774        3.2958469088       18.3534708955
  H         4.4945762537        2.5066981126       16.8798503547
  C         2.7874291187        1.6268031721       17.8208293633
  H        13.5269358838        2.7850859478       20.0834360011
  H        14.0555896948        1.1850611150       19.8151663843
  C        14.8633785241        2.2390825168       21.6540952868
  S         9.9122087874       10.0588380678       17.4775203239
  N        10.0158951597        9.6283238690       15.8977874644
  C        10.2929080636        7.4843358940       14.6931300891
  H        10.1252651952        5.3827198015       13.9593407800
  C         4.1598758834        0.7119782413       36.0220596836
  N         4.3015230578       -0.5664691194       36.1467043986
  O         5.1077135542       -2.2514438627       34.8655679866
  H         2.0771801330        2.1957999919       17.2626634521
  H         2.2697086272        1.3989191824       18.8203851666
  C         2.8535107129        0.3271850255       17.0969892281
  H        15.7719762309        2.5148992887       21.1282678916
  H        14.4681220117        3.1520644867       22.1597145322
  C        15.1843904980        1.1731204378       22.6823652703
  C        10.6162964204        8.2685087601       13.5355349477
  S         4.1089333100        1.7941674708       37.4469386235
  C         4.4615811316       -1.2197512249       37.4499670935
  H         2.6844816693        0.4871416455       16.0205256436
  H         3.9058133500       -0.1176827029       17.1653533358
  C         1.8777553184       -0.8150320062       17.6405660197
  H        15.6524104766        0.3377031468       22.2289145326
  H        14.3448615776        0.8262952330       23.2535452548
  C        16.1210555114        1.7311034482       23.7454463224
  H        10.1876997962        9.2167304273       13.5015056362
  C        11.2417417481        7.9439818649       12.3911300466
  H         3.8758283784       -0.7807089964       38.2312345968
  H         4.1464958318       -2.2941397417       37.4729226112
  C         5.9871312095       -1.1500452814       37.9230621199
  H         0.8722234570       -0.4184594783       17.6631102368
  H         2.1247584918       -1.0010080243       18.6121009075
  C         1.9149184755       -2.1254616146       16.8120183759
  H        15.5477598578        2.5207152297       24.1905382219
  H        16.2912894787        0.9668570978       24.4794044646
  C        17.4172922277        2.1836145977       23.1467332978
  S        11.9336338738        6.3911433354       12.0600235709
  C        11.3190662353        8.9893427932       11.3691782671
  H         6.2218743123       -1.7696569642       38.7664214325
  H         6.5740583570       -1.5663752042       37.1324597724
  H         6.4505355400       -0.1679787798       37.9612210845
  H         1.6255672584       -1.8281354508       15.7923301637
  H         1.2528933812       -2.8996361110       17.2248640592
  H         2.8943079853       -2.5505473876       16.5844105741
  H        18.2150816481        2.0406273355       23.8589541658
  H        17.5358414638        3.1530711252       22.7357979773
  H        17.6745790299        1.4725121548       22.3390477562
  C        12.2604740888        7.0943310788       10.4624584501
  N        11.9970297053        8.4395791689       10.2952635206
  O        10.6916745994       10.0670300321       11.3569527574
  S        13.0756346059        6.3074266222        9.1799644058
  C        12.1664737649        9.2762812192        9.1111640590
  H        12.2237334858       10.3248438143        9.4401530976
  H        13.0409522831        9.1347909875        8.5312065315
  C        10.9710820575        9.1034467258        8.2584002716
  H        10.6980628580       10.0291386701        7.7332799745
  H        11.1683211674        8.3813599657        7.4728335423
  H        10.1283438808        8.8352315839        8.8220134157
  H        -3.0529688469       14.6856046346       16.2337460800
  C        -2.7366882310       13.6556950442       16.3935562128
  H        -3.5685302012       13.1419243678       16.8760401364
  C        -1.7757550683       13.6293356536       17.5786983263
  C        -2.4627974179       12.8533282648       15.1362952789
  C        -2.5136869378       13.9142816950       18.9003691961
  H        -1.2413079187       12.6995278838       17.3930003098
  H        -0.9995875645       14.4331799946       17.6014575037
  H        -3.4574105572       12.8100085383       14.6417929655
  H        -1.8769247684       13.5657380028       14.5412406784
  H        -1.8259175779       11.9599954092       15.1701530706
  C        -2.2066329572       12.8678927553       19.9596094746
  H        -3.5544889384       14.1129086030       18.7374330404
  H        -2.0250359096       14.8313993074       19.2802720913
  C        -2.5980717238       13.2733041021       21.3396863234
  H        -2.5310715719       11.8884734641       19.5452732896
  H        -1.1059917437       12.8571103121       19.9257589893
  C        -1.5852033600       12.7375539186       22.3863636245
  H        -3.4400305488       12.6731699974       21.5393199088
  H        -3.0333747899       14.2563203987       21.5005250671
  C        -0.3918421689       13.6507515874       22.5418527362
  H        -2.0305377171       12.6454259100       23.3964145193
  H        -1.2562755397       11.7435012275       22.1331173266
  C         0.8002141339       12.9407822067       23.2441811533
  H        -0.1013800730       14.1845814360       21.6368769338
  H        -0.6110757177       14.4402610318       23.3276037943
  C         1.1814989233       11.5829781051       22.5902917263
  C         0.4390693531       12.1842088098       24.4891533817
  C         2.0315413245       13.8064812098       23.3342793919
  C         0.9345378999       10.4448037053       23.3554836971
  C         1.8180557478       11.1791390429       21.4534740596
  C         0.4403995604       10.8267583378       24.5493469613
  C        -0.1130168219       12.8992685371       25.5710440265
  H         2.2683180742       14.0862014506       22.3356205725
  H         1.8836795809       14.7905292987       23.8341906572
  C         3.1811820401       13.1474914780       24.0644203316
  S         1.3999033305        8.9292124310       22.6693106522
  C         1.9143043297        9.8086109036       21.2834282456
  H         2.0946522256       11.9108924040       20.7222345159
  C         0.0774279931       10.2332928344       25.7480238702
  H        -0.1690306381       13.9355061797       25.4750331429
  C        -0.4860034475       12.2478591211       26.7599075592
  H         3.5042023064       12.1673486044       23.6673417304
  H         2.8516373243       12.8773642883       25.0536566334
  C         4.3120710199       14.0574803020       24.3437432824
  C         2.3507778167        9.0943035809       19.9882197114
  C        -0.3712375840       10.8812074089       26.8588210698
  H         0.2934379166        9.1764033459       25.9082149472
  C        -0.8364846564       12.6326413832       27.9811022859
  H         5.0441594006       13.5661054600       24.9975157607
  H         4.0527818110       14.7917111926       25.0787142708
  C         5.1540459418       14.4260883860       23.0908491875
  C         2.3340467897        7.6625917541       19.6950053843
  C         2.7447471550        9.9177533403       18.8210600827
  C        -0.6362508827       10.0973915551       28.0625598838
  C        -0.9740093319       11.5106218844       28.7690492368
  S        -1.2729680398       14.1232315692       28.7640689169
  H         5.7796435730       15.2101764514       23.4063021077
  H         4.5561532587       14.8304360128       22.2827909422
  C         6.1365330214       13.3637533735       22.5528029575
  N         1.9328736473        6.6265763648       20.5472349665
  C         2.5974228672        7.2046873389       18.4474674103
  C         3.0889687019        9.4118342527       17.5952846729
  H         2.8018467245       10.9959066110       18.9215618948
  C         0.5354830789        9.2444380529       28.7340044678
  C        -1.9109036587        9.3046415176       27.9015365011
  C        -1.4545224755       11.8818620955       30.0547714952
  C        -1.5287145708       13.2626664557       30.2052306957
  H         6.7437007368       12.9397701906       23.3721305857
  H         5.5918824742       12.4321979094       22.2503418745
  C         7.0382339213       13.9418724744       21.4653572866
  S         1.8732971338        5.2265108167       19.7303777032
  N         2.5064545963        5.7921707496       18.3258761488
  C         2.9331593819        7.9684904964       17.3134744813
  H         3.4231415845       10.0805718604       16.7910593825
  H         0.9613163379        8.6193952307       27.9694212108
  H         0.3818519914        8.6107793843       29.6331671221
  C         1.6650741850       10.1478521137       29.2899168848
  H        -1.6913530070        8.5681665419       27.0981489223
  H        -2.0437232341        8.8731255455       28.8336245111
  C        -3.2144825932       10.0449005243       27.5217203909
  H        -1.6089799519       11.1440449118       30.8221133380
  C        -1.7644045683       13.9046583105       31.5223155689
  H         8.0635450575       13.6993666452       21.6466120289
  H         7.1148571196       15.0097388014       21.5942163377
  C         6.6201686125       13.5030838511       20.1396158765
  C         3.1568175298        7.3219043237       16.0646341278
  H         2.1458046421       10.6841613180       28.5163921156
  H         1.2064252682       10.7965392793       30.0521445459
  C         2.7892162547        9.2732933485       29.9071799085
  H        -3.0982272455       10.8207836952       26.7190261406
  H        -3.5201725369       10.5093667133       28.4359843521
  C        -4.5074518035        9.1522708648       27.2206309544
  C        -1.8208180030       15.3443330612       31.7160889385
  C        -1.9027066118       13.0513250256       32.7662181991
  H         7.0914946787       14.1565796614       19.4243618385
  H         6.9509718039       12.5012981919       19.8259753961
  C         5.1865806835       13.6457386778       19.6804114840
  H         3.0053775630        6.2376521889       16.0780676459
  C         3.5409524970        7.6542614627       14.8277077252
  H         3.1390676782        8.4988156265       29.2286728267
  H         2.2913800585        8.6830012107       30.6875413833
  C         3.9211741692        9.9594979933       30.4963079242
  H        -4.4303007594        8.8162774037       26.1748444124
  H        -4.7353354348        8.3979115564       28.0113236959
  C        -5.6919557166       10.0755002593       27.0692024198
  N        -1.5787512712       16.3295533582       30.7065471705
  C        -2.1699507883       15.9167057979       32.9396103423
  C        -2.1995484171       13.6870584604       34.0025569962
  H        -1.6971394350       11.9976819021       32.7381401938
  H         5.3015878108       13.6890158364       18.5931558117
  H         4.4032651582       12.9039194522       19.9808198651
  H         4.8796770680       14.6479117840       19.8547758973
  S         3.9519391758        9.2227357031       14.2672635148
  C         3.5413986936        6.5037625653       13.8370415635
  H         4.3701574547       10.5406073917       29.7141886159
  H         3.5049535558       10.6620418471       31.2313533819
  C         5.0681266854        9.0059054190       30.9992358670
  H        -5.4138352925       10.9152443422       26.3976209068
  H        -5.8927091140       10.5394788517       28.0945122794
  C        -6.9416402063        9.2899812659       26.7237267487
  S        -1.7625894127       17.7812587490       31.3238494266
  N        -2.1471977888       17.3602733718       32.8639061437
  C        -2.3497574315       15.1047883474       34.1358319715
  H        -2.2958273774       13.0194429323       34.9051188089
  C         4.0221151797        8.4057230937       12.7016711594
  N         3.8963511205        7.0569365778       12.6425179686
  O         3.4727239384        5.3098863196       14.0551747041
  H         5.6050630705        9.4695996102       31.7889070622
  H         5.8401659281        8.9542766989       30.2000923132
  C         4.5158056163        7.7684999110       31.6150104543
  H        -6.8444744570        8.6221001481       25.8600949465
  H        -7.1897616426        8.5715507126       27.5207316574
  C        -8.2128913238       10.2204723373       26.4734048481
  C        -2.5327150658       15.8682398963       35.3544254133
  S         4.4327242660        9.2536334726       11.1963149649
  C         3.8224413884        6.2530186261       11.4732490082
  H         3.7929775831        7.9849301666       32.4266548448
  H         3.9536734199        7.0777911085       30.9531258168
  C         5.6377883443        6.9466840767       32.2658040799
  H        -7.8299622512       11.1165141879       26.0529717960
  H        -8.4830568280       10.2332671884       27.5355272174
  C        -9.2456106690        9.6016568565       25.6298752892
  H        -2.1862098749       16.8737489280       35.2881071338
  C        -3.0347204505       15.5772449396       36.6080814247
  H         4.5875124991        6.5604643650       10.7271569793
  H         4.2545728655        5.2424789756       11.7290148328
  C         2.5159467243        6.1807102876       10.7204328285
  H         5.7499475931        7.3599384572       33.2561895471
  H         6.6287139662        7.1898744302       31.7745239860
  C         5.3018994253        5.4700494930       32.2369579941
  H        -9.3294243005        8.5467612716       25.9684484493
  H       -10.2456905121       10.0757833144       25.9207761529
  C        -8.8277259870        9.6662579588       24.1694559094
  S        -3.7146630511       14.0754082133       36.9540851703
  C        -3.0025133762       16.6905609492       37.5869315008
  H         2.1581803516        7.1492338010       10.3894548686
  H         2.6197246228        5.4660264381        9.8869778413
  H         1.7173634842        5.7954615885       11.3813717107
  H         4.4145821464        5.2558905066       32.8360116012
  H         6.0588502874        4.7888261877       32.6701414979
  H         5.2800433005        4.9925032062       31.2560067452
  H        -8.0772512202        8.8534225106       23.9897804547
  H        -8.4513239430       10.6061606924       23.7950885289
  H        -9.6393170098        9.4718329498       23.5638109583
  C        -4.0551519880       14.8180481148       38.5374606058
  N        -3.5828795845       16.1150430966       38.7006770620
  O        -2.7282690583       17.8436532794       37.3641100066
  S        -4.7444537068       13.9601601724       39.8722017449
  C        -3.7310892903       16.8655345140       39.9052030515
  H        -3.8477771541       17.9908439839       39.6950687304
  H        -4.6985722610       16.6253596095       40.3347157220
  C        -2.5854967323       16.5707207078       40.8423148697
  H        -2.7095364138       15.7533464189       41.5905388762
  H        -1.6235909674       16.3513875429       40.2676228880
  H        -2.2950934946       17.5263242083       41.4134029309
