352
 i =    10400, time =    10400.000, E =        23.9021524695
  H        11.6293351944        7.0555362509       32.5813522607
  C        11.6326494234        6.0038193381       32.4840953896
  H        12.6376698171        5.7099174284       32.1627026185
  C        10.6071152012        5.6229990409       31.3886428173
  C        11.2484522920        5.4592357202       33.9243823199
  C        11.1679756373        5.8844963510       29.8663818872
  H        10.0145526001        4.6358945235       31.5838129093
  H         9.8497694245        6.3420631539       31.5883216635
  H        10.5018475658        5.9041183302       34.6014636578
  H        10.8572916085        4.4766204280       33.6949047303
  H        12.1061479306        5.2208561947       34.4730895057
  C        10.4481141050        5.1232665527       28.8301192356
  H        12.1660309086        5.4974033168       29.6514863897
  H        11.0006627304        6.9411857373       29.7319090910
  C        10.8720490347        5.3256173726       27.4414604412
  H        10.6213477283        4.0293171476       28.9597565485
  H         9.4113952763        5.2326960295       29.0110179612
  C         9.7828634565        4.8474328464       26.5724850185
  H        11.8291321780        4.7954479436       27.2934063059
  H        11.0600698429        6.3616423311       27.1672919287
  C         8.5832664614        5.8322981425       26.4575017869
  H        10.1516329256        4.7196854008       25.5675684216
  H         9.4326183695        3.9081733023       26.9971750409
  C         7.3709664335        5.2036570905       25.6793190997
  H         8.2094635666        6.2646406774       27.3930367768
  H         8.8789870410        6.7610403719       25.9604454287
  C         6.9072361427        3.9241510177       26.3510810310
  C         7.7738138661        4.4566506767       24.4237602560
  C         6.2216552879        6.1957570275       25.4791899208
  C         7.1399517554        2.7765545437       25.5475785390
  C         6.3146511374        3.5523422580       27.5828586144
  C         7.6726720492        3.0881783237       24.3057187787
  C         8.2844594344        5.0768614563       23.2626906110
  H         6.3708765732        6.9075847753       24.6873812147
  H         6.2229593605        6.7035864287       26.3950667333
  C         4.8838290773        5.4556471890       25.1119599646
  S         6.5637227394        1.3393185967       26.2315150656
  C         6.1150067630        2.1792974920       27.6850683181
  H         6.1125341004        4.3048916378       28.3380068286
  C         8.0881491109        2.4654948544       23.1336041888
  H         8.2560366242        6.1574812741       23.3271820581
  C         8.6791487099        4.4440111285       22.1863811117
  H         5.1652310560        5.0006571435       24.1455674938
  H         4.5938501924        4.6072535328       25.8052749488
  C         3.8053695321        6.4774676629       25.0812674167
  C         5.6527795081        1.4593775322       28.8993603955
  C         8.6590669292        3.1276811170       22.0247537487
  H         8.0359879166        1.4343067911       23.1186847334
  C         9.0833122275        4.8751955394       20.9273065531
  H         3.0750668613        6.2823192313       24.2963610896
  H         4.2960639602        7.4270355686       24.8870264764
  C         3.0650955251        6.7571181763       26.4311393850
  C         5.6742752141        0.0791638824       29.0716449874
  C         5.1729022180        2.2504860308       30.0434978799
  C         9.1062967749        2.3694414196       20.8002458836
  C         9.2951411707        3.8353170828       20.0427081139
  S         9.1659676631        6.4864216689       20.2203820696
  H         2.3795452402        7.4944496132       26.2866079740
  H         3.8101150118        7.2556541862       27.0593838701
  C         2.6379546189        5.4266583613       27.1023340862
  N         5.9761589331       -0.8854359865       28.0586499444
  C         5.2903152285       -0.4785152740       30.2648894150
  C         4.8319433573        1.6932737398       31.2926867313
  H         5.0490408568        3.3143936184       29.9286279343
  C         7.9566799956        1.5410762163       20.1607363843
  C        10.4080710024        1.6081176640       21.1098676180
  C         9.5708674460        4.3182140619       18.7545256729
  C         9.5894210973        5.6993536762       18.6883237054
  H         2.3261111585        4.5961280475       26.4202615359
  H         3.5296954388        5.0278556738       27.6333403353
  C         1.4689779168        5.5261742390       27.9855805545
  S         6.0101393992       -2.3871814267       28.7779733525
  N         5.5539009083       -1.8730047761       30.2525700835
  C         4.9751798200        0.2581634020       31.4301422213
  H         4.5124443811        2.4125544567       32.0202575417
  H         7.7889235899        0.6808869739       20.8219092876
  H         8.2574931536        1.1888928910       19.1619030248
  C         6.6861332028        2.3681480828       19.8666664506
  H        10.5440718467        0.9351012496       20.2719184725
  H        10.1572629413        1.0006794288       21.9716702922
  C        11.6611520836        2.4100121926       21.4130559688
  H         9.7553280547        3.6687684399       17.9457684007
  C         9.9325848159        6.4972437542       17.4326778899
  H         0.8627653853        4.6257761506       27.6986006303
  H         0.9757256417        6.4911724933       27.9933923556
  C         2.0633662686        5.3012168596       29.4297449310
  C         4.8026313137       -0.4492338892       32.6663064436
  H         6.8589472432        3.2297254099       19.1703086272
  H         6.3653020835        2.8724150024       20.7632417811
  C         5.5333372179        1.5675908268       19.3101061386
  H        11.5664269089        2.6315422988       22.4894598004
  H        11.7510704123        3.2488681550       20.7810486429
  C        12.8980931317        1.4719469768       21.4966182075
  C         9.8981068292        7.8958878936       17.2351183879
  C        10.1844509751        5.7474143779       16.1698607441
  H         2.4399833716        4.2306960856       29.4634043025
  H         3.0601086103        5.9242093032       29.4785046174
  C         1.1605483629        5.6666063975       30.5063844673
  H         4.8359451587       -1.5452066960       32.6165691750
  C         4.6586868707       -0.0115375221       33.9400837379
  H         5.2182258355        0.8416702825       20.0517610154
  H         5.9513729086        0.9410427783       18.5628548105
  C         4.3812847292        2.4309227528       18.6995525133
  H        12.8573730227        0.8227237422       22.2747126719
  H        12.8786715593        0.8400684975       20.6588056086
  C        14.1413087565        2.3721482351       21.4862434600
  N         9.7192002334        8.8184242871       18.2868675304
  C        10.2087166258        8.4917334037       15.9948743538
  C        10.5023000850        6.2822662735       14.9985898419
  H        10.0400330528        4.6495895347       16.1927131864
  H         0.6612555968        6.6296107494       30.2656814731
  H         0.4193844536        4.8860178353       30.7216640363
  H         1.7120664839        5.7559429551       31.4241803314
  S         4.4961489744        1.6133204112       34.5137574604
  C         4.6434410433       -1.1116342976       34.9981873944
  H         3.8887837654        2.8887953009       19.6147631107
  H         4.7084152067        3.1853078414       18.0301302222
  C         3.3892704203        1.7124362425       17.8027022375
  H        13.9268657738        3.2481832101       20.8534844486
  H        15.0527202717        1.8727991117       20.9974312853
  C        14.5375992871        2.8408750993       22.8757282899
  S         9.8560129683       10.3112812588       17.6666994458
  N        10.2550056116        9.9049836784       16.1112068043
  C        10.4786086050        7.7217763805       14.8077719310
  H        10.4996120239        5.6636108164       14.1105880708
  C         4.1939620260        0.8319046505       36.0741221153
  N         4.3209960881       -0.5835041810       36.1924146945
  O         4.7548216329       -2.2934253893       34.7208539167
  H         3.3680977550        2.3916197049       16.9352829884
  H         2.4102935610        1.8136569962       18.3133650871
  C         3.6107561574        0.2991815253       17.2316077005
  H        15.1920483942        3.7505803350       22.7551246470
  H        13.6267733271        3.0964013887       23.4394017683
  C        15.3482452837        1.7099060543       23.5544481438
  C        10.7717656075        8.3687384540       13.6437731435
  S         3.9585836273        1.6816482481       37.5867209208
  C         4.4836084692       -1.3712854829       37.4284281492
  H         3.1798208163        0.1334351110       16.2942489324
  H         4.6301217320        0.3310705332       17.0785884358
  C         3.2052491374       -0.8778234143       18.1354266779
  H        15.0337691427        0.7320141188       23.1340406522
  H        14.8991050433        1.4222939076       24.5179779599
  C        16.8473567704        1.9219678355       23.6185532519
  H        10.6524775452        9.4483643368       13.5864193519
  C        11.4271751095        7.9515725466       12.5040830444
  H         3.8523974783       -1.0252957340       38.2352260967
  H         4.3122137104       -2.4842495737       37.2246832922
  C         6.0162908729       -1.1184324275       37.9151643038
  H         3.4182406798       -0.6672069763       19.1459918013
  H         3.7215450086       -1.7218788210       17.7632529513
  C         1.7753175770       -1.1997223426       17.9951293711
  H        16.9946080702        2.9141904390       23.9820224555
  H        17.2345664677        1.1844085915       24.2991221138
  C        17.5301426547        1.7184455906       22.2595603237
  S        11.7860173404        6.3316517199       11.9495138007
  C        11.7146130611        9.0066755741       11.4470748375
  H         6.2803626276       -0.1622001262       38.3358412637
  H         6.1908416638       -1.9250643156       38.5640305080
  H         6.7466259339       -1.2760486590       37.0932001781
  H         1.4761759853       -1.9271835465       18.7531433583
  H         1.6637852111       -1.5702485224       17.0070731130
  H         1.2040660737       -0.3558945075       18.1203433176
  H        18.6159421234        1.5565777756       22.3402401869
  H        17.3893982021        2.6080002027       21.6459107088
  H        17.1414999471        0.8997520832       21.5580509491
  C        12.4124986426        7.0404984224       10.5019684968
  N        12.2332771699        8.3881503367       10.3886535180
  O        11.3692454050       10.1523715235       11.5281701898
  S        13.1455638578        6.2200535801        9.1364403748
  C        12.4569012667        9.0010423591        9.0648631733
  H        12.6440735584       10.0338501008        9.2124929478
  H        13.3892853831        8.5616212848        8.6149972913
  C        11.1826784905        8.8613317800        8.1824783939
  H        10.6429086304        9.7869906506        8.4238159465
  H        11.3766566630        8.7513778112        7.1617454560
  H        10.5177599682        8.0773478979        8.6009334979
  H        -4.0608013640       14.2053751325       16.5282805525
  C        -3.5022837814       13.2889785815       16.4863494816
  H        -4.0521164492       12.4136663619       16.7829922623
  C        -2.3705934096       13.3637817125       17.5277733648
  C        -2.8509056052       13.0637710749       15.1375240822
  C        -2.9893710042       13.4004163577       18.9335920124
  H        -1.7666377363       12.4826640892       17.4822705073
  H        -1.6572967417       14.1876718095       17.3144693827
  H        -3.4445787707       13.4761389862       14.3435817831
  H        -1.8739399358       13.5714438534       15.1473546079
  H        -2.6786973999       11.9551712156       14.8095525841
  C        -1.9088529674       13.6014172909       19.9425481160
  H        -3.5240805005       12.4770330570       19.1401742489
  H        -3.7519729705       14.1738160399       19.0703695077
  C        -2.3164012485       13.5376124166       21.3684028570
  H        -1.0721548783       13.0613016530       19.6306989343
  H        -1.6136493166       14.6587072711       19.7186769461
  C        -1.3643917686       12.8884659106       22.3540436146
  H        -3.2122929355       12.9411259221       21.4234872571
  H        -2.5776104828       14.4877207737       21.7060493167
  C        -0.0048609863       13.6469728012       22.5260498633
  H        -1.9105161929       12.7701614588       23.3078935198
  H        -1.1838896350       11.8210673915       22.0621684513
  C         1.0252803982       12.9134686208       23.3403889053
  H         0.4123302819       13.9201421596       21.5447122667
  H        -0.2416935834       14.5734199489       22.9856358857
  C         1.2632517508       11.5441958613       22.7000369303
  C         0.4763554510       12.2612815346       24.5890580918
  C         2.4245618957       13.7223831343       23.3689910475
  C         1.0253920863       10.4714070308       23.5246683039
  C         1.8391208243       11.1461809731       21.4596403049
  C         0.5238761037       10.8862836847       24.7116894514
  C         0.0761886200       12.9672362066       25.6995178398
  H         2.7162474709       14.0061656893       22.3778978932
  H         2.3598812344       14.6573205850       24.0051903382
  C         3.6083424934       13.0590904260       23.9398361723
  S         1.3996047597        8.9611776071       22.7845839086
  C         1.7992762231        9.8233020290       21.2866428993
  H         2.0786170141       11.8939035599       20.7334634945
  C         0.1889687930       10.3200002251       25.8993206933
  H        -0.1426542808       13.9905759002       25.6443187608
  C        -0.4109618335       12.3481108055       26.7960704374
  H         3.9291766993       12.2122153616       23.4134066926
  H         3.4199982056       12.8454854625       24.9709139584
  C         4.7378756902       14.0175617186       24.0641573680
  C         2.2215157905        9.1656660865       20.0060001657
  C        -0.3868732474       10.9828084545       26.9777365596
  H         0.3194233935        9.2485173360       26.0675589822
  C        -0.8554259062       12.6959557144       28.0536613819
  H         5.3534714561       13.5741008307       24.7534922210
  H         4.4430449621       14.8393941300       24.6244833422
  C         5.4556686226       14.2661155442       22.7269227099
  C         2.3769486204        7.7927085244       19.8948948389
  C         2.6233080807       10.0190692840       18.9038294571
  C        -0.7356029323       10.2696413871       28.2258136288
  C        -1.0063354868       11.5955477517       28.8702959056
  S        -1.2363838755       14.1898885024       28.8921097386
  H         6.2093534617       14.9975662511       22.8701896846
  H         4.7788488336       14.6145042936       22.0040125058
  C         6.2404893536       13.0315575121       22.2711283211
  N         2.1196604546        6.8422399900       20.9013009634
  C         2.7705918493        7.2005009232       18.6869754321
  C         3.0342051223        9.4103840466       17.7491947039
  H         2.4954398807       11.0478053658       18.9203200806
  C         0.4741899826        9.5389085130       28.9269362202
  C        -2.0348659596        9.4237690597       28.1218116817
  C        -1.4627133528       11.9293183205       30.1679385921
  C        -1.5374558829       13.3021195504       30.3201946750
  H         6.8651672962       12.5907566544       23.0307471030
  H         5.5374127924       12.3574749279       21.8048690881
  C         7.2948493837       13.3486497459       21.1721097961
  S         2.2342809447        5.3397962555       20.2098534113
  N         2.7954661200        5.7726537861       18.7555613969
  C         3.1304608246        7.8955583287       17.5761346764
  H         3.1580874498       10.0616360352       16.8726850452
  H         0.7192105709        8.6587608260       28.3047049210
  H         0.0759676714        9.2907760653       29.9328553384
  C         1.7096862860       10.2905128038       29.2123330350
  H        -1.7748534430        8.5402257195       27.5258311351
  H        -2.3654543894        9.0269134662       29.0886316197
  C        -3.1230800521       10.2648163189       27.3707469851
  H        -1.5830532226       11.1546687135       30.8939629578
  C        -1.6744691047       14.0167644744       31.6627313683
  H         8.1065159582       12.6310794569       21.0947026918
  H         7.8041945818       14.2557084733       21.4899236097
  C         6.5703599685       13.4828437297       19.8814142982
  C         3.4297061599        7.2477216971       16.3392290612
  H         2.0913772511       10.8948535015       28.4058035656
  H         1.5104828513       10.9339244213       30.0661750413
  C         2.8571715179        9.4910480118       29.7013869965
  H        -2.8631299653       10.4291001604       26.2982336334
  H        -3.3515546801       11.2806783624       27.7638177991
  C        -4.4329580177        9.4844853398       27.3235540897
  C        -1.7948421698       15.4193792567       31.8533908302
  C        -1.7390529827       13.2658945026       32.9394885435
  H         5.8737819104       12.7062170459       19.7557074066
  H         5.8861367172       14.2952477993       19.9816596745
  C         7.6279575818       13.5894528039       18.7916942308
  H         3.7111412844        6.1233738823       16.5119056880
  C         3.7046761458        7.6552126267       15.0650830057
  H         3.1164750624        8.8089093063       28.9062051150
  H         2.5192546263        8.8985543488       30.5417735177
  C         4.0851141183       10.2966591638       30.3559184094
  H        -4.4353992116        8.7046707255       26.5554756096
  H        -4.3753872428        8.9726943374       28.1871117464
  C        -5.6990679243       10.3335394210       27.3146906222
  N        -1.6158206561       16.3909155475       30.8475893310
  C        -2.0611043531       16.0550055365       33.0477617280
  C        -2.1196926335       13.8820160659       34.1488729644
  H        -1.6023449670       12.2330966072       32.8885454153
  H         8.2879873454       12.7332055047       18.9259059358
  H         7.0132188225       13.5756588704       17.9203169785
  H         8.2339300295       14.4665503142       18.8020143446
  S         3.9022603985        9.2566434379       14.4994005036
  C         3.8627213292        6.5919356305       14.0661296695
  H         4.2446945021       11.1842035852       29.8061740334
  H         3.9632009134       10.6325568237       31.3285905398
  C         5.4599519419        9.5364229646       30.2184186501
  H        -5.6594584895       11.1432393118       26.6117854968
  H        -5.6291062295       10.8681364849       28.2555206610
  C        -7.0143921542        9.4907782490       27.3517179828
  S        -1.6637573300       17.8624749877       31.4444585673
  N        -1.8977208087       17.3920918445       32.9465717730
  C        -2.1783959109       15.3922566963       34.2682037161
  H        -2.2889793649       13.2694363795       35.0263486666
  C         4.0873123557        8.5491721186       12.9374908742
  N         4.1068384059        7.1866572997       12.8960644674
  O         3.7770472814        5.3622490522       14.2573506141
  H         6.3609797469       10.1843552975       30.1216706791
  H         5.4876786642        9.0707045617       29.2285647436
  C         5.5210722489        8.4013427798       31.2479276320
  H        -7.0864273502        8.6640907827       26.6997081084
  H        -7.1444641916        9.1045646730       28.3232580061
  C        -8.2644669404       10.2046330601       27.0604635668
  C        -2.4058213970       16.1509579253       35.4689521573
  S         4.4811047621        9.3924533846       11.4043278380
  C         3.9939336349        6.4095686693       11.6213050471
  H         5.9054573585        8.9061049657       32.0813922095
  H         4.5907314839        8.0083709854       31.5852675796
  C         6.4582424731        7.2982393720       30.7002464832
  H        -8.1309518009       11.1814389540       26.6586002073
  H        -8.7301127750       10.4157007992       28.0019813853
  C        -9.2595182398        9.5258295579       26.0795775753
  H        -2.1086735887       17.1697141127       35.3274374896
  C        -2.8803927511       15.8043144051       36.6779504698
  H         4.6310687929        6.7979310737       10.9046868666
  H         4.2527623010        5.3633554028       11.7638251891
  C         2.5917852236        6.4787562005       11.0692536023
  H         7.4902190916        7.5838465975       30.6489095903
  H         6.1484552663        7.0508260550       29.6742111513
  C         6.3761358454        5.9875485168       31.5849198416
  H        -9.2893828342        8.4531264788       26.1549305657
  H       -10.2902689120        9.8329729474       26.2789761368
  C        -8.9114240765        9.7479260593       24.6466225150
  S        -3.5446201185       14.2511968056       37.1497724434
  C        -2.9367888224       16.7927726203       37.7807407955
  H         2.4127022220        5.9548934012       10.1419622679
  H         1.9523599401        5.9951052382       11.8051303384
  H         2.4057050256        7.5014112197       10.8107675878
  H         6.9867337189        6.1527012727       32.4820970788
  H         6.7715694947        5.1472037849       31.0249157641
  H         5.3531625025        5.8169012328       31.8132530720
  H        -9.7444023956       10.2126964661       24.1598339827
  H        -8.7949166369        8.8250520335       24.1181030022
  H        -8.2101936494       10.5364222978       24.4070283159
  C        -3.8109961865       14.9453715107       38.7589607857
  N        -3.5097248372       16.2351085105       38.8386634746
  O        -2.6196252038       17.9593955680       37.6605302874
  S        -4.5631810879       14.1009354941       40.0889362088
  C        -3.8502669005       17.0753597944       39.9773770685
  H        -4.2734690189       18.0319113618       39.4884392530
  H        -4.6960893021       16.7823025437       40.5588430884
  C        -2.7469144131       17.3395555616       40.8779285796
  H        -1.8281779051       17.5892087050       40.3731219154
  H        -3.0441895207       18.1088156110       41.6486739202
  H        -2.5355761851       16.4766037423       41.5021547112
