352
 i =    62700, time =    62700.000, E =        25.3041969503
  H         9.3171463048        5.7962086272       31.5869046737
  C        10.1738939673        6.2314668368       32.1651135574
  H         9.7266441216        7.0202328198       32.7604104552
  C        11.0917497977        6.9267931039       31.1253043213
  C        10.8200463156        5.2434526731       33.1735352785
  C        11.4422865052        5.9747306457       29.9401385856
  H        10.6336104655        7.7968993269       30.6690972922
  H        12.0831588255        7.1772385060       31.4636012944
  H        10.1017420962        5.1496338814       33.9349059476
  H        11.0370351448        4.3194504330       32.7192717284
  H        11.6984433463        5.7263811830       33.5712064832
  C        10.1474744867        5.7147155145       29.0565233838
  H        11.7135476542        5.0384106842       30.4206759484
  H        12.1940007467        6.3197848341       29.2871771481
  C        10.5455919131        5.5544748539       27.5863283303
  H         9.8372879936        4.7174806680       29.4430257478
  H         9.3861571029        6.4859075612       29.1199665101
  C         9.5228630539        4.9044216358       26.5623886225
  H        11.4017180689        4.8936835173       27.5821532782
  H        10.8809024817        6.4691573659       27.1310707729
  C         8.4010560971        5.8386379756       26.0816267002
  H        10.0581669012        4.4458444412       25.7041324151
  H         9.0915326608        4.0140453053       26.9281391293
  C         7.2361803028        5.0843780110       25.3018423011
  H         7.9095013387        6.3048282752       27.0157254885
  H         8.6688952197        6.6585627920       25.3941446165
  C         6.7941458424        3.7325724674       26.0553020092
  C         7.7166917436        4.3032444236       24.1461352870
  C         5.9821716310        6.0172338160       24.8370558710
  C         7.1124856207        2.6281128776       25.2789870286
  C         6.2052003943        3.3437937276       27.3038904673
  C         7.7497358814        2.9881915931       24.1352074529
  C         8.1542462270        4.9707050317       23.0149186765
  H         5.4290806302        5.3765527201       24.2005754254
  H         6.1855285111        6.9038985618       24.2780174135
  C         4.8664153535        6.3397095744       25.8299631130
  S         6.8912105862        1.1035811671       26.1428594602
  C         6.1748786128        1.9837896265       27.4383605740
  H         5.9162722942        4.0283435646       28.0668733747
  C         8.2466363680        2.3635674861       23.0106502830
  H         8.0464077086        5.9976606546       23.0522921476
  C         8.5726064988        4.4162054034       21.8490079816
  H         4.9868489230        5.6075602407       26.6288627179
  H         5.2583556432        7.2076383871       26.3960621244
  C         3.4746324422        6.4120259327       25.1653774607
  C         5.6723490496        1.2153104123       28.6523730592
  C         8.7302658750        3.0235189392       21.8583603185
  H         8.2501990629        1.2495718439       23.0181790784
  C         8.9844209890        4.7754891211       20.5671272099
  H         3.2919943613        5.5204277502       24.6371061489
  H         3.5186328700        7.2882226098       24.4562599488
  C         2.3275567912        6.6045017044       26.0871792416
  C         5.7301206952       -0.2123959996       28.8543712257
  C         5.0570328879        1.9864415611       29.7984369869
  C         9.1466958035        2.3139844461       20.6023710421
  C         9.3054188630        3.6813243388       19.8304331219
  S         9.2063997460        6.3027559298       19.7650546865
  H         1.5119952268        7.1146663294       25.5219657642
  H         2.6298839960        7.1769821985       27.0173696278
  C         1.7430392214        5.3190177133       26.5854785130
  N         6.2732925931       -1.2549742967       27.9952019438
  C         5.5505264729       -0.7158354519       30.1642758240
  C         4.6408538399        1.4506329356       31.0111980612
  H         4.9389545788        3.1319586841       29.6529395863
  C         7.9868828230        1.4902864127       19.9593385664
  C        10.4774915262        1.4975550354       20.6596974220
  C         9.7745829156        4.0405079741       18.5857974006
  C         9.8204883839        5.4166793983       18.4418045486
  H         0.8143260640        5.1399644958       25.9740926026
  H         2.4665546534        4.5024951331       26.4039144107
  C         1.2433586035        5.2848940978       28.0157324936
  S         6.0623339333       -2.6943086587       28.7926239856
  N         5.7965059727       -2.0773031840       30.2392299580
  C         4.9647051947       -0.0361931455       31.2347830566
  H         4.2355678153        2.0395779761       31.7806487968
  H         7.7334353489        0.7001995803       20.6384953420
  H         8.2723922702        0.8860912396       19.1226475804
  C         6.6341873875        2.3230047037       19.7200601857
  H        10.6905275441        1.2098595674       19.6823441826
  H        10.5735172123        0.6558726297       21.3105629202
  C        11.5380363579        2.5018148342       20.9724524411
  H        10.0969648997        3.2888133715       17.9760612736
  C        10.2124657854        6.1940789522       17.1656350178
  H         0.5938935972        4.3773780491       28.2806331895
  H         0.6548012461        6.1606357579       28.0010270954
  C         2.3828317905        5.3330386803       29.0960891315
  C         4.7619714990       -0.7626614099       32.4489295399
  H         6.6060767138        2.7920866507       18.7189817190
  H         6.4982055256        3.1481906506       20.3732397892
  C         5.3738376093        1.4510199863       19.6882846600
  H        11.2442767347        3.2839246269       21.7153525750
  H        11.8319823252        3.0904631724       20.0112750539
  C        12.8203302086        1.8335166850       21.3282868747
  C        10.2214665335        7.6275992060       17.0000327201
  C        10.5481815153        5.4191273534       15.9538444101
  H         2.8378294076        4.3324444242       29.0934809136
  H         3.2615314649        5.8836145165       28.8136464462
  C         1.7320456632        5.7650827835       30.4971674317
  H         4.6802848279       -1.8640440926       32.3817073312
  C         4.4534037721       -0.3798536433       33.7084524074
  H         4.5066815936        2.1676965629       19.8189113556
  H         5.4626746504        0.8012672588       20.4876820943
  C         5.1525003243        0.7225436358       18.3270255595
  H        12.5776832383        1.0198864276       21.9934520298
  H        13.3372114148        1.3713979001       20.4358330318
  C        13.7322374260        2.7635335943       22.0622463072
  N         9.8272884690        8.4945856895       18.0889478382
  C        10.6187222816        8.3114877643       15.8548638014
  C        10.9081308833        6.0875109568       14.7611819176
  H        10.5353322315        4.3147727162       15.9926273809
  H         0.9019581660        6.4709707976       30.4144608760
  H         1.1686219924        4.9736658959       30.9020500583
  H         2.4954833357        6.1150673732       31.2374535282
  S         4.3105023135        1.3069191203       34.2648787757
  C         4.2390082719       -1.3982114023       34.7590449504
  H         5.2120772361        1.5071002439       17.5584062297
  H         6.0708589811        0.1624866840       18.1588019557
  C         3.8635280360        0.0396190785       18.1712160702
  H        13.0920451071        3.4488734643       22.5714223898
  H        14.3895718188        3.3073562443       21.3971109780
  C        14.5688092117        1.9242698233       23.0545595964
  S        10.1251406013       10.0205386444       17.5440319301
  N        10.5504655876        9.6746781667       15.9850854385
  C        10.9868202423        7.5592673580       14.6884968624
  H        11.0348292087        5.5091223924       13.8559509546
  C         3.9855074354        0.5920987216       35.8577811958
  N         3.9680746262       -0.7504991890       35.9321767351
  O         4.2987300576       -2.6564888541       34.5290175473
  H         3.0836192821        0.8089419610       18.4333245611
  H         3.8571977608       -0.7126341090       18.9599869878
  C         3.5425233385       -0.4595430988       16.7419400269
  H        14.0682401795        1.6828416129       23.9652538843
  H        14.7524682412        0.9327389216       22.6958019030
  C        15.6646582255        2.7502911363       23.6506099181
  C        11.2707973527        8.3375386956       13.5533103367
  S         3.4789404299        1.4499223521       37.3360923663
  C         3.8615498051       -1.5805237982       37.1486038915
  H         3.1101504978        0.4116534182       16.1729123831
  H         4.3679539938       -0.9297685400       16.2493825608
  C         2.3615928361       -1.4401991058       16.7415530872
  H        15.1600152433        3.3338324676       24.4590891138
  H        16.0138852801        3.3635992029       22.8456333281
  C        16.8575792129        1.9955082817       24.0971951135
  H        10.9333491133        9.4404641211       13.6158162871
  C        11.7336735713        8.0174652020       12.3143719263
  H         3.1271754198       -1.1978091528       37.8154809717
  H         3.4462039929       -2.5916193838       36.9905823628
  C         5.2083921543       -1.5755214089       37.8219157369
  H         2.2867333450       -1.8696156643       15.7464225693
  H         1.3830892207       -1.0582482417       16.8993860583
  C         2.4748648060       -2.6511241048       17.6828761766
  H        17.2313519394        2.4010833880       25.0304071408
  H        16.5938263704        0.9896160548       24.4441218534
  C        17.9544257464        2.1966957134       23.1131885147
  S        12.2446674895        6.4702990105       11.7379655256
  C        11.6751496937        9.1390896392       11.3454407924
  H         5.5208066489       -0.6179458237       38.0567835357
  H         5.2909122568       -2.2847621502       38.6381297311
  H         5.8642074720       -2.0200570022       37.0380974451
  H         3.4372084991       -2.6250129756       18.1946614276
  H         2.1398432629       -3.5868424902       17.1116054162
  H         1.7634964478       -2.5142950966       18.4995356198
  H        18.7931804785        1.6503145226       23.4516952853
  H        18.2483116103        3.2171920019       23.0217011352
  H        17.6727774656        1.9130762158       22.0531739907
  C        12.4958705350        7.2680109340       10.1930588781
  N        12.1268752868        8.6195638888       10.1430553945
  O        11.2505111257       10.3215671006       11.5692154174
  S        13.0258240074        6.4149692880        8.6862058574
  C        12.2133392821        9.4405314465        8.9696947834
  H        12.4883425684       10.4151793319        9.2909805911
  H        13.0382962358        9.0334886375        8.4162435501
  C        10.8702710458        9.3066286631        8.2779660089
  H        10.4006052032        8.3527829020        8.4547688885
  H        10.1466055349       10.0757554040        8.6295665686
  H        10.9582095419        9.5191985522        7.2091441901
  H        -4.0171090662       14.2077521178       16.4182035343
  C        -3.0307911950       14.0161546233       16.2168599289
  H        -2.9654721974       12.8807291749       16.2563305149
  C        -2.0278176721       14.5570018366       17.2185050841
  C        -2.7289341886       14.5436025029       14.7873850597
  C        -2.5742654096       14.3898934280       18.6297442631
  H        -1.0943056185       13.9543751528       16.9869604172
  H        -1.8948135041       15.6155425074       16.9824847499
  H        -3.5929885119       14.5468701897       14.1996200571
  H        -2.3102953039       15.6125047992       14.7138941991
  H        -2.0514336534       13.8803088282       14.2689139194
  C        -1.6291194116       13.6795369619       19.6188014998
  H        -3.5260113336       13.7590292666       18.6037388571
  H        -2.9133096026       15.3152000579       19.0283641044
  C        -2.0882792845       13.9613515580       21.0655808075
  H        -1.7575365207       12.6474586797       19.3647520209
  H        -0.5778417852       13.9786511996       19.5339635971
  C        -1.2848997809       13.1566960762       22.0882199135
  H        -3.1474541067       13.7556638664       21.1866074401
  H        -1.9449902827       15.0003592858       21.2599484781
  C         0.0600233035       13.9595477441       22.5290656247
  H        -1.8992535525       12.8510446818       22.9172715627
  H        -0.8382534624       12.2156558658       21.6650780249
  C         1.0740939784       13.1673674216       23.3173164277
  H         0.5309815561       14.3918265312       21.6567516719
  H        -0.1469457360       14.8539910165       23.1469681389
  C         1.4387963115       11.8141375074       22.6245600132
  C         0.6234728305       12.4054215651       24.5498653110
  C         2.2670684528       14.0520249265       23.7303687682
  C         1.1655727684       10.6866701928       23.4211688967
  C         1.9934127192       11.4343242382       21.3642259169
  C         0.5792321179       11.0640146276       24.6135983805
  C         0.1568511076       13.0650138202       25.6863405381
  H         2.5800533274       14.6658199389       22.8943571330
  H         1.8563707055       14.7392057633       24.4164685048
  C         3.5022794794       13.3216180191       24.2509337109
  S         1.4355960532        9.1629142188       22.6710424558
  C         2.0305466848       10.0396690847       21.2277985652
  H         2.3002342290       12.1849399845       20.6163915847
  C         0.1510120200       10.5171169468       25.7648806000
  H         0.1763733404       14.1405092808       25.6836158315
  C        -0.3078543680       12.4695562276       26.8229679660
  H         3.7233246196       12.4768697629       23.6360427087
  H         3.3403785927       12.9033440413       25.2873424619
  C         4.8905549623       14.0061788809       24.2628621585
  C         2.4078553418        9.2840447784       19.9760528245
  C        -0.2971578734       11.1224811616       26.9226266608
  H         0.1878417172        9.4620823016       25.7883172368
  C        -0.7667295738       12.8573347800       28.0595936208
  H         5.6652333438       13.5770532407       24.9548883485
  H         4.5650063580       14.9145233570       24.7127242950
  C         5.5836511431       14.2690206526       22.8961689737
  C         2.3758685087        7.8820184482       19.6544440581
  C         3.0557156828       10.1220013241       18.9248993288
  C        -0.7588331238       10.3854168089       28.1793573208
  C        -0.9894699607       11.7456848033       28.8624704047
  S        -1.0812236006       14.3559839093       28.9340728679
  H         6.1944111887       15.1572774813       23.0754308577
  H         4.8692217322       14.5406595386       22.0805866457
  C         6.4659817344       13.1294570867       22.4391021754
  N         2.0250386732        6.8773862669       20.5556870245
  C         2.6741909538        7.3855583960       18.4115837013
  C         3.3925704848        9.5909261344       17.7301422647
  H         3.2739424362       11.1484131114       19.1097639944
  C         0.2796402342        9.3883214767       28.8576155456
  C        -2.1663787262        9.6778295406       27.9882363314
  C        -1.3592444964       12.0702535778       30.2317782071
  C        -1.5034247950       13.3979890764       30.4058208700
  H         7.2811539528       12.8909794517       23.1809651035
  H         6.0140863029       12.1009551239       22.4637049691
  C         7.1261571681       13.3823082668       21.0272505669
  S         2.1780667679        5.4208070423       19.9122513516
  N         2.5250173275        5.9654081906       18.4527674718
  C         3.1423930001        8.2143372884       17.3965750810
  H         3.7865204890       10.3332371053       17.0774555313
  H         0.5312077822        8.6419484972       28.1356434556
  H        -0.1322438560        8.8562693947       29.7363443592
  C         1.5276048436       10.2544225483       29.2446035842
  H        -1.9552893622        8.9846232250       27.1067074370
  H        -2.4898069515        9.1717128240       28.9443235737
  C        -3.3262489916       10.4913380582       27.5275481670
  H        -1.3394730540       11.2667244906       30.9852770530
  C        -1.7483275667       14.0787686951       31.7140438833
  H         8.0089795745       12.6872801484       20.9082651189
  H         7.5833776189       14.3793027022       21.0380566614
  C         6.1320846746       13.2158506853       19.9137758801
  C         3.5211517967        7.5611800692       16.2011759806
  H         1.8354897207       10.8487973360       28.4462600668
  H         1.3323266744       10.9481158623       30.0483191306
  C         2.6611251959        9.3884107783       29.8047099936
  H        -3.1383151726       10.8572696374       26.4573054787
  H        -3.5225863268       11.4209364636       28.1776610752
  C        -4.6129672167        9.7065504438       27.6881671527
  C        -1.8458680084       15.5167419665       31.8734613962
  C        -1.9923850581       13.2817853488       32.9066769051
  H         5.4566409080       12.3669120994       20.1585970527
  H         5.4531646121       14.1728227934       19.8270383409
  C         6.8089375027       13.1443274216       18.5096424449
  H         3.5325722467        6.4997201101       16.2131323298
  C         3.7628022280        8.1527167947       14.9777250505
  H         2.9647296828        8.7821863309       28.9397606518
  H         2.2466795192        8.6082693920       30.4829271371
  C         3.7970148454       10.0926577318       30.6003623764
  H        -4.5467567515        8.6872982030       27.2606473142
  H        -4.8377768494        9.4939925308       28.7320046191
  C        -5.8737311727       10.4663844391       27.2284794794
  N        -1.5493197191       16.4485907388       30.8974856351
  C        -2.0761773095       16.1255156855       33.1153129631
  C        -2.2553957227       13.8157447656       34.1513053784
  H        -1.8653062140       12.1406641220       32.8728027349
  H         7.8799921388       13.2593373964       18.6595235816
  H         6.5095069116       12.1977917519       17.9684551560
  H         6.5731203078       13.9488198147       17.8327976985
  S         3.8856260679        9.8550824982       14.5484085348
  C         3.9581314067        7.2408916965       13.8354715931
  H         3.9172905465       11.1239844565       30.2061245501
  H         3.3607757470       10.2486854994       31.5901026456
  C         5.0433320044        9.2245779689       30.7073684713
  H        -5.4963102482       11.4703079879       26.9825885574
  H        -6.5862158511       10.4934167099       28.0868878316
  C        -6.4413442842        9.6942525795       25.9942814806
  S        -1.6123210373       17.8994906635       31.5356972600
  N        -1.9014327075       17.5059443233       33.0915690939
  C        -2.3355895902       15.3431585663       34.2836522813
  H        -2.5546710725       13.1860639315       34.8490382141
  C         4.2785283574        9.3030326568       12.8967535394
  N         4.2148773687        7.9473404619       12.7614011403
  O         3.7139219375        5.9906663120       13.8689454059
  H         5.8253134131        9.7472167100       31.3163144054
  H         5.5822587190        9.1049758147       29.7681305536
  C         4.7864827515        7.8513483487       31.1923208745
  H        -5.5636839886        9.5121285209       25.3848744754
  H        -6.8685794117        8.7059898207       26.2823885462
  C        -7.3436652814       10.6382976547       25.1104839825
  C        -2.6840277504       15.9940412682       35.4234523696
  S         4.7360023976       10.3884334785       11.5451589280
  C         4.2673135040        7.2946364102       11.3822762463
  H         4.0835540789        8.0209152390       32.0263619505
  H         4.2061464981        7.4064719850       30.4201614935
  C         6.0099044586        7.0468268123       31.5620793412
  H        -6.6600767112       10.8218543344       24.2909753494
  H        -7.4907802919       11.5490082494       25.6599932359
  C        -8.6106974421        9.9942835209       24.8115503321
  H        -2.3648375306       17.0204810434       35.4395376210
  C        -3.3683456582       15.6580257979       36.5312487124
  H         4.9833930991        7.8978484197       10.8282001286
  H         4.8910413067        6.4872864146       11.5954130265
  C         2.9181339858        6.9847419712       10.6360782166
  H         6.1634740210        7.0274737843       32.6710500623
  H         6.8493324009        7.5673543700       31.0773151445
  C         5.9029435337        5.4720273208       31.1284188122
  H        -9.1967521790       10.5154670997       24.0642339651
  H        -8.3613383563        8.9916816424       24.5486449738
  C        -9.5062279854        9.9652520210       26.1490901232
  S        -3.8828025056       14.0570925283       37.0714859855
  C        -3.6818176644       16.6560939553       37.5151934173
  H         2.6804164876        7.7412657434        9.9358086051
  H         2.8101458283        6.0612135923       10.1082385105
  H         2.2214229145        7.0290139137       11.5404092793
  H         5.4771131409        4.7669443503       31.8893307125
  H         6.8843481998        5.1801683146       30.8798530344
  H         5.3768498448        5.3698185761       30.1641669252
  H       -10.4833717658        9.5479676890       25.9848946268
  H        -9.5875012604       10.9386765799       26.5635198312
  H        -9.2908173882        9.3349827625       26.9570781704
  C        -4.5863991395       14.8274404174       38.4954653776
  N        -4.2747645924       16.1238280381       38.6474869776
  O        -3.2970088301       17.8132651763       37.5265210430
  S        -5.3370360666       13.9242203903       39.7655253084
  C        -4.4533076249       16.8900887406       39.8965391351
  H        -4.6762739100       17.9233338908       39.5895596383
  H        -5.3018683914       16.4675674761       40.4350624909
  C        -3.1854880289       16.8921315891       40.7300682361
  H        -2.5290493905       17.6814160131       40.3413178894
  H        -3.3695879809       16.9868603330       41.8107283460
  H        -2.6857792648       15.9544513014       40.6460428938
