352
 i =    14100, time =    14100.000, E =        24.8430357354
  H        12.0441993790        6.7167841972       32.6029023401
  C        11.9335925429        5.6666877782       32.5254287309
  H        12.7902243970        5.2086183708       32.0615910274
  C        10.8027829983        5.6282316860       31.5533341797
  C        11.4862839602        5.0582767448       33.8243029710
  C        11.3548756496        5.8647320776       30.1449377718
  H        10.2969753975        4.7323189448       31.5450304619
  H         9.9947913839        6.4101199500       31.7210466927
  H        12.3839971253        4.5578500367       34.2383243376
  H        11.1346182924        5.8413304508       34.5045815692
  H        10.7357572236        4.2817399360       33.7833267218
  C        10.2756407123        6.2819775328       29.1607669516
  H        11.7753705021        4.8811007175       29.8857988845
  H        12.1989254312        6.5086619827       30.1479698249
  C        10.8613623822        6.2996299243       27.6747188666
  H         9.3374202374        5.7287624976       29.2948722163
  H         9.9015777172        7.2748573705       29.4141010154
  C         9.8724739084        5.6716097584       26.6433444635
  H        11.8300008472        5.7991197241       27.5359092177
  H        11.0161479518        7.3780309979       27.3659730315
  C         8.5375020238        6.4960466182       26.4514779082
  H        10.4378128082        5.6352073071       25.7157785215
  H         9.5761640523        4.6574670661       26.8220927898
  C         7.3053445280        5.8015638031       25.7361634295
  H         8.1495647694        6.9640022528       27.3320766248
  H         8.7095825709        7.4057330306       25.8627789845
  C         7.0250662420        4.4879233328       26.4193898857
  C         7.7944519259        5.1511896197       24.4619244838
  C         6.0559869970        6.7083167358       25.7101195726
  C         7.1990820262        3.4146251382       25.6277493329
  C         6.4726409329        4.1647848824       27.6594004238
  C         7.7268233088        3.7784255289       24.3792937320
  C         8.2501620512        5.8406471207       23.3095510970
  H         6.2944354518        7.4541436969       24.8482178931
  H         6.0162100750        7.2259649645       26.6210140550
  C         4.8181416226        5.8922383245       25.2295236269
  S         6.7811610746        1.9249769527       26.3528024157
  C         6.2358219833        2.8238633010       27.7638870802
  H         6.2491806763        4.9535271319       28.3430306676
  C         8.1595074253        3.2124451633       23.2529142228
  H         8.0946890644        6.8665056547       23.3971971219
  C         8.5834301801        5.2077768949       22.1506155231
  H         5.2128274980        5.2828464958       24.4424636129
  H         4.5132975881        5.1097744922       25.9902717153
  C         3.5461476851        6.6184765988       24.8479074832
  C         5.8063756042        2.0036774946       28.9966679054
  C         8.5855778052        3.8527633351       22.1201623658
  H         8.2017299653        2.1475729309       23.2747838345
  C         9.0053758864        5.4923889780       20.8929574803
  H         3.0096673967        6.1087195559       24.0443474592
  H         3.8875545023        7.5718049548       24.3856840538
  C         2.5960300268        6.8599886340       26.0805021639
  C         5.7758151219        0.5998133420       29.1147578845
  C         5.3218755741        2.7130763444       30.1632617591
  C         8.9443562190        3.0645780537       20.9343826682
  C         9.2419288178        4.3565958540       20.1333403971
  S         9.2888270600        6.9356084978       20.0870741409
  H         1.8044848107        7.5034559789       25.6849765248
  H         3.1378341587        7.3735555792       26.7779179927
  C         1.9262185360        5.6197162204       26.6027847525
  N         6.0732563776       -0.3105505672       28.1051429775
  C         5.4834530423        0.0165986862       30.3000619510
  C         4.9746530274        2.0697166360       31.3889597529
  H         5.2892922522        3.8012499845       30.1422953883
  C         7.8703865409        2.2030714853       20.2472555261
  C        10.2255669144        2.2007135143       21.1379405559
  C         9.6046936080        4.6224229892       18.8229053580
  C         9.7007235687        6.0003247361       18.6364350031
  H         1.1798140132        5.2344830905       25.9097781204
  H         2.6865914705        4.8387570271       26.6142193885
  C         1.3846285796        5.7928580311       28.0070279019
  S         6.0950782605       -1.8016631897       28.8034258686
  N         5.7519356648       -1.3833888379       30.3003147506
  C         5.1656405232        0.6542257609       31.5417067756
  H         4.6564015601        2.7560685685       32.1362910461
  H         7.4972914358        1.3786342281       20.8218911690
  H         8.2024532519        1.8404553220       19.2628739404
  C         6.5548503317        2.8820481120       19.9349755507
  H        10.3591117439        1.6943049616       20.1633009583
  H        10.1329733201        1.3294861057       21.8180025708
  C        11.5293893868        2.9694890202       21.4240390097
  H         9.6679231061        3.7430268115       18.1586285105
  C         9.9512000272        6.7753157501       17.3130157194
  H         0.7527474477        4.9672031727       28.2690374835
  H         0.7168673856        6.7136304724       27.9790321078
  C         2.4200841525        5.8246724102       29.0804113459
  C         4.9488380920       -0.1257465521       32.7499067558
  H         6.6438950473        3.5423971505       19.1104160465
  H         6.1468963246        3.4700610476       20.7203736574
  C         5.4716540823        1.8882153341       19.4643186434
  H        11.5569859988        3.3889944868       22.4486469463
  H        11.6271132082        3.8195759576       20.8274559696
  C        12.7489986144        2.0855592607       21.1719359875
  C        10.0391691932        8.1302841636       17.0708421997
  C        10.1902502541        5.8413968282       16.1711899148
  H         3.1981468095        5.0579710976       29.0030840942
  H         3.0741011519        6.6499706624       28.9882724886
  C         1.9192975238        5.9670262005       30.5021351072
  H         5.2067691986       -1.1989507516       32.6588431944
  C         4.7549095512        0.2843624132       34.0591184068
  H         5.1402763779        1.4008929708       20.3437343385
  H         5.9138637591        1.1927438986       18.8194235196
  C         4.1558761745        2.3793914787       18.8508875278
  H        12.7826578635        1.2600375230       21.9454499260
  H        12.5589063569        1.6497407820       20.2052364742
  C        14.0599442606        2.8911931552       21.1251642854
  N         9.6293193704        9.1635313008       17.9381210607
  C        10.4291987792        8.6748992344       15.8869938536
  C        10.4984307030        6.3544126690       14.9143033388
  H        10.1827911378        4.8024977203       16.3568392062
  H         1.2287240154        6.7982064605       30.5760544712
  H         1.4305803305        5.0921245820       30.9089454890
  H         2.7093250692        6.1813981106       31.2171552647
  S         4.5918992058        1.8844906709       34.6313377635
  C         4.5698330871       -0.7868235448       35.0793575372
  H         3.9545575166        3.2828245004       19.4270004975
  H         4.2193006395        2.6149048027       17.6981296808
  C         3.0396718542        1.3281406389       18.9160916369
  H        13.7708103262        3.6138655179       20.3812636264
  H        14.8961379803        2.3323526112       20.6932797103
  C        14.3916860453        3.4189696381       22.5355276037
  S        10.0571619911       10.6515307192       17.3255853123
  N        10.6428103599       10.0470766062       15.9308972601
  C        10.6405708530        7.8115326687       14.7363201187
  H        10.6402091336        5.6725753659       14.0826436560
  C         4.2680099558        1.0682615035       36.2324037143
  N         4.3478339568       -0.2510138618       36.2598270711
  O         4.6256874817       -2.0251545817       34.7863015089
  H         2.0851021088        1.7825897705       19.0722696246
  H         3.2477421265        0.7188487221       19.7799730737
  C         2.9474555517        0.3217278971       17.7136783957
  H        15.1255128250        4.2529374876       22.4355574789
  H        13.5297131948        3.8601194062       23.0658940215
  C        15.1071917207        2.3560172741       23.3123346764
  C        11.0077104954        8.4176312051       13.4739824054
  S         3.8824892595        1.9853023473       37.5844213758
  C         4.3232152172       -1.0201482383       37.4504825375
  H         1.8728521559        0.0509986283       17.6364465878
  H         3.2238354876        0.6620533641       16.7332114051
  C         3.8587011933       -0.9008017213       18.0266677106
  H        15.0284360888        1.3907542122       22.7885155510
  H        14.4922493769        2.2573992563       24.2397474235
  C        16.5371490050        2.4840448410       23.6956762030
  H        11.0501096532        9.5214828685       13.4516849438
  C        11.3283553080        7.8163172006       12.3143703109
  H         3.7628884672       -0.5024008288       38.2424889993
  H         3.6522739921       -1.8237415646       37.3471741505
  C         5.6981928367       -1.3884287947       37.9217594877
  H         3.7750559992       -1.0736490313       19.0787343305
  H         4.8588762242       -0.7053052821       17.6919310091
  C         3.4363044347       -2.1737207693       17.2282341143
  H        16.6654764355        3.2941722708       24.3434316250
  H        16.6281936258        1.6261413649       24.4091379985
  C        17.5155145703        2.3206692098       22.5395771665
  S        11.3916553376        6.1690687414       11.7863193216
  C        11.6650793796        8.7615247996       11.2486863434
  H         5.5868117704       -2.0900760181       38.7515780569
  H         6.3857959778       -1.9688773716       37.2592238393
  H         6.1954639837       -0.4515564121       38.2327139187
  H         3.7242245922       -1.9646402686       16.2400573770
  H         2.3900431815       -2.3708309268       17.3088716154
  H         3.9601223309       -3.0446847800       17.5520505339
  H        18.4925405370        2.5720208160       22.9352137501
  H        17.3914130102        3.0536249466       21.6612145797
  H        17.4900832578        1.3253263037       22.1208256386
  C        11.9689408559        6.7698634431       10.2548569594
  N        12.0620597631        8.0746361421       10.1909499365
  O        11.5323693881        9.9775652018       11.3311960352
  S        12.5321806078        5.7613105811        8.9477199654
  C        12.3040586046        8.7520649975        8.9529722707
  H        12.6862703448        9.7169635604        9.1544216939
  H        13.0382626039        8.2651550045        8.2604675286
  C        11.0208220534        8.8823883692        8.1015928949
  H        10.2720713649        8.1364339183        8.3102014234
  H        10.6143425153        9.8613050067        8.1868884883
  H        11.3372168537        8.6982352073        7.0703945842
  H        -4.0572130095       14.4270723535       16.6544898692
  C        -3.7709841583       13.3604395313       16.7203839119
  H        -4.6373503381       12.7420779265       16.9624783877
  C        -2.5887729359       13.2292784225       17.6925901143
  C        -3.3035752554       13.0010314686       15.3139480355
  C        -2.9261173991       13.0978934094       19.1673571756
  H        -1.9460000818       12.4394074523       17.3911327140
  H        -1.9611982675       14.1112611858       17.5948348757
  H        -3.7928889931       12.0914685250       14.9528137861
  H        -3.3499771331       13.7801082122       14.5831701048
  H        -2.2331979427       12.6513330025       15.2936413351
  C        -1.9238112814       13.4726084613       20.1521537618
  H        -3.1282139307       12.0510910067       19.3097003116
  H        -3.8319295012       13.7384169974       19.2661919543
  C        -2.4379295437       13.4669329915       21.6257021289
  H        -1.1049190147       12.8025704717       19.9729958764
  H        -1.6784851775       14.5456654090       19.9532289494
  C        -1.4230830874       12.8228663336       22.5430580673
  H        -3.3547844691       12.9760677520       21.8344993930
  H        -2.5771918907       14.4790918095       21.8557358275
  C        -0.2784852756       13.8973138007       22.7536992955
  H        -1.9776700010       12.4757510041       23.4243754601
  H        -1.0872834203       11.8878366380       22.1208629035
  C         0.9219563419       13.2082634031       23.4361235759
  H         0.0060577247       14.6522207151       22.0197791127
  H        -0.7772905276       14.5928207964       23.4990795499
  C         1.3379798271       11.8692594389       22.7238128595
  C         0.6450463267       12.4591324762       24.6867774035
  C         2.1215156689       14.1314482235       23.5531440690
  C         1.2594749528       10.7860209902       23.5801541016
  C         1.8229406451       11.4086271890       21.4262782979
  C         0.7745317051       11.1095787946       24.8010099527
  C         0.2371920110       13.1357827759       25.9017169637
  H         2.3787023245       14.6351552654       22.5671520160
  H         1.9034502393       14.9265231010       24.2143021038
  C         3.4013630078       13.5145658784       24.1707679923
  S         1.7166938622        9.2790662660       22.9011460769
  C         1.9948254113       10.0056544007       21.3504673996
  H         1.8620592454       12.1629103893       20.6425383318
  C         0.4272712611       10.5064107854       25.9530723295
  H         0.1528577109       14.1650988223       25.9943372696
  C        -0.0316281139       12.4678211986       27.0066051116
  H         3.7952608661       12.7199462112       23.4810912737
  H         3.1268139687       13.0528560485       25.0894309289
  C         4.4521846366       14.5029602553       24.3829688564
  C         2.4659394277        9.3246918815       20.0865794270
  C         0.0574500022       11.1200215942       27.1153943859
  H         0.4958769166        9.4513240487       26.0787008755
  C        -0.5286710373       12.8281244354       28.2635818320
  H         5.0988891962       14.2599116429       25.2040204371
  H         3.9813462691       15.3910217705       24.8399166916
  C         5.3658628350       14.8382652794       23.2302424661
  C         2.4629621449        7.9524622826       20.0028464903
  C         3.0036295446       10.1343372585       18.9881382878
  C        -0.3445315220       10.4042074836       28.3363359833
  C        -0.6856439351       11.6885284040       29.0603502185
  S        -0.8355953267       14.3025520493       29.1359600515
  H         5.8873213953       15.8289508918       23.3523000073
  H         4.7371544806       15.0746350099       22.3828882113
  C         6.4601242943       13.7954896579       22.8422417544
  N         1.9502303149        6.9992633153       20.8954622310
  C         2.8397111573        7.3506331656       18.7900968580
  C         3.2708782144        9.5098970061       17.7952945120
  H         3.0862093021       11.1948206214       19.0028002161
  C         0.9058150800        9.7143099921       28.9900995568
  C        -1.5513275240        9.4588884798       28.1807461150
  C        -1.1016377211       11.9742602971       30.3860480254
  C        -1.1408377671       13.3251088876       30.6062118718
  H         7.0548271464       13.4101820276       23.6506705110
  H         5.9157053950       12.7912686675       22.7254551025
  C         7.3766871064       14.2375851913       21.6694379389
  S         1.9714548616        5.5500718753       20.2247385067
  N         2.8393695437        5.9522311725       18.8959384658
  C         3.1813102120        8.0609888424       17.6301929148
  H         3.5340123383       10.1793020874       17.0108652972
  H         1.3675581121        9.0034546068       28.3835813577
  H         0.6180335033        9.0779831211       29.8087539665
  C         2.0664959003       10.6473300641       29.2964709768
  H        -1.4217493971        8.8048748573       27.2905487789
  H        -1.5018471501        8.8915690875       29.1051561706
  C        -2.8892066959       10.0608326889       27.8741141419
  H        -1.3111093572       11.1620312800       31.1778600859
  C        -1.3934241486       13.9325220131       31.9239633386
  H         8.3577371609       13.7910117899       21.7637740606
  H         7.5024354278       15.3419355657       21.8037452636
  C         6.8978944987       13.7432976702       20.2991402486
  C         3.3885252185        7.2988958017       16.4533019562
  H         2.4010602043       11.1964407787       28.3829600725
  H         1.7426879310       11.2077813483       30.0921629392
  C         3.2729064295        9.7607172905       29.7440415838
  H        -2.7654939882       10.8523657883       27.1598301373
  H        -3.3922030386       10.5196155155       28.7186195525
  C        -3.9643844125        9.1245411881       27.3854103137
  C        -1.6788195802       15.3047842780       32.1197043901
  C        -1.5921154907       13.0420330374       33.1684125142
  H         6.8110669824       12.6987123504       20.2644138641
  H         5.9055226477       14.0431085210       20.1569514078
  C         7.8564022212       14.1411401134       19.1765628171
  H         3.1884293586        6.2601272037       16.4697542901
  C         3.6496660652        7.7157827694       15.1382757490
  H         3.9261154960        9.6663412261       28.8298712404
  H         2.9119064812        8.8072598819       30.0883027354
  C         4.0424589290       10.4879396096       30.8659670970
  H        -3.5706564045        8.4242062091       26.5476829454
  H        -4.2924295710        8.4532342754       28.1615601133
  C        -5.2058537713        9.8889274733       26.7762352514
  N        -1.4990848827       16.2886845602       31.0732540041
  C        -2.0633038097       15.8834080731       33.2923701691
  C        -1.9610390319       13.6447550104       34.3287012175
  H        -1.4024089713       11.9558756345       33.2121976058
  H         7.5030518875       13.7206216041       18.2377015223
  H         8.0176410915       15.2001531923       19.0036294930
  H         8.8870060281       13.8385416308       19.4372818129
  S         3.8496652723        9.3631296180       14.6133716605
  C         3.8055688938        6.7195797960       14.0400201131
  H         4.2959304645       11.4601023105       30.4800237259
  H         3.5577712387       10.4550781453       31.7702635778
  C         5.3606549892        9.7474692666       31.0496392194
  H        -5.1158383176       10.0424208263       25.7324366730
  H        -5.3799886011       10.9082755244       27.2596993717
  C        -6.5339580704        9.1295508292       26.9323038673
  S        -1.9365938713       17.7559408799       31.7205009071
  N        -2.1892201288       17.2639081911       33.2261353270
  C        -2.1152465147       15.1230034139       34.4799384247
  H        -2.0940230285       13.0138393498       35.1348478084
  C         4.1284105100        8.6779265781       12.9953128348
  N         3.9728792421        7.3764457301       12.8666711898
  O         3.7715765726        5.5353588914       14.3014039536
  H         6.0238284023       10.2157265910       31.7353070696
  H         5.7645116988        9.8728173822       30.0152190365
  C         5.1480042385        8.2265134158       31.5500248994
  H        -6.5136454191        8.3458899688       26.1849557493
  H        -6.4592791325        8.6057926251       27.9375231896
  C        -7.6746665008       10.0595262599       26.8086210442
  C        -2.4544797968       15.9282613956       35.6864284974
  S         4.4998284567        9.6270606386       11.5192341975
  C         4.0874825677        6.7019948705       11.5324769894
  H         5.4508682121        8.0557933862       32.5911440392
  H         4.0830245027        7.8999033321       31.5189683097
  C         5.8275070507        7.2418021619       30.6085601761
  H        -7.3426755664       11.0747374734       26.3586358982
  H        -7.7961705572       10.4460269350       27.8083959765
  C        -8.8842069424        9.5031205414       25.9719840987
  H        -2.4651644847       16.9334108888       35.6289356853
  C        -2.8750159050       15.5352017309       36.9379925488
  H         4.8444658085        7.0888214800       10.9256618536
  H         4.3188562992        5.6800023181       11.7758106570
  C         2.7763048044        6.8259650077       10.7128075959
  H         6.4014769295        7.7107969398       29.7628120535
  H         5.0771993487        6.6661582038       30.0915032290
  C         6.6529130748        6.2224087460       31.3640344082
  H        -9.1423940343        8.5054071167       26.2401605460
  H        -9.7780994284       10.1763558847       26.0866598206
  C        -8.7166506335        9.4339738926       24.4704451504
  S        -3.3133679895       13.9661576549       37.4040306831
  C        -3.1550791025       16.5989510391       37.9533574964
  H         2.7895245378        6.3642201716        9.8021812734
  H         1.9214687204        6.5164156109       11.2807690739
  H         2.6328540099        7.9124534786       10.5032274133
  H         7.6414237198        6.5707636468       31.6363005737
  H         6.9070751803        5.4505589381       30.5743185888
  H         6.0830004325        5.7478453460       32.1652842618
  H        -8.2289951886        8.5067489282       24.2840695200
  H        -7.9273038590       10.2096583994       24.1564922571
  H        -9.5941328115        9.4687785241       23.8733058471
  C        -3.7463995158       14.6590048592       38.9697492085
  N        -3.8058024265       16.0213521134       38.9845517501
  O        -2.8884869791       17.7685619301       37.8385109932
  S        -4.5699716899       13.7525523108       40.3007688690
  C        -4.1447231390       16.7406367905       40.2287087522
  H        -4.5004195535       17.7279989925       39.9713516353
  H        -4.9566804764       16.3579970488       40.7990016258
  C        -2.8827925491       16.8558484634       41.0841523513
  H        -2.1124610616       17.5397807215       40.7148252627
  H        -3.1945679698       17.2077235740       42.0436476435
  H        -2.4963389906       15.8572438685       41.2128444094
