352
 i =    76400, time =    76400.000, E =        25.1126082092
  H         9.3878661232        6.3420252215       31.9207151659
  C        10.4611603828        6.5027840395       32.2804364862
  H        10.3227762149        7.5169270360       32.5953529888
  C        11.5014243285        6.6245019644       31.2060567763
  C        10.9079758837        5.6240015294       33.4651535665
  C        11.3395228184        5.5594351435       30.1028426979
  H        11.5574046817        7.6159101879       30.8206986398
  H        12.4810535956        6.3422577540       31.6382432395
  H         9.9854648109        5.4119031893       34.0052549252
  H        11.2050838091        4.7188337865       32.9848822043
  H        11.6903826864        6.1111478644       34.0062009542
  C        10.1717908030        5.8455227923       29.1848233279
  H        11.2099942808        4.6000132462       30.5558848854
  H        12.2144829225        5.4967712967       29.5124945057
  C        10.4010185371        5.6843945787       27.6728456465
  H         9.3094172532        5.1440520925       29.3058077410
  H         9.7328106389        6.7675650253       29.4096066818
  C         9.3972339015        4.8350988774       26.9307773122
  H        11.3698296751        5.2004692344       27.6093904359
  H        10.3919026066        6.7275407208       27.2658699112
  C         8.2174095710        5.7402801350       26.5218248641
  H         9.8106386953        4.4111352418       26.0427864569
  H         9.1310357241        4.0455493276       27.6867108702
  C         7.0698089961        5.0910632594       25.6872758589
  H         7.6052350423        6.0915813646       27.3709924126
  H         8.5114801094        6.7285798163       26.0493113864
  C         6.8165456881        3.7778593018       26.3781688248
  C         7.6198441175        4.3337813728       24.4792877772
  C         5.8371215455        5.9253686899       25.2751226354
  C         7.0993957386        2.6404584074       25.6215810230
  C         6.3146773793        3.3954772166       27.6709022396
  C         7.5492792994        3.0226880014       24.4004673619
  C         8.2612675012        4.9754810861       23.4463280623
  H         5.2949605223        5.4497990278       24.4228407920
  H         6.1294381005        6.9087785330       24.9596071087
  C         4.7422976536        6.0728028177       26.3655764096
  S         6.7176612995        1.1393402923       26.4335619208
  C         6.1889927253        2.0138154878       27.8591540986
  H         6.1737890341        4.1493639353       28.4612188401
  C         7.8971872824        2.4536786221       23.1853174779
  H         8.2570914570        6.0827273228       23.5073000757
  C         8.5938779386        4.4690008026       22.2108965131
  H         5.2224875256        5.9310294288       27.2768900718
  H         4.4665296089        7.2093839500       26.3613022082
  C         3.5115536659        5.1904707184       26.2334500137
  C         5.7061975010        1.2945463895       29.1000588281
  C         8.4219826142        3.1189147598       22.0595228821
  H         7.7950741916        1.3676076588       23.1115640431
  C         8.9483024138        4.8791717752       20.9714813654
  H         3.7537705084        4.2034217050       26.5778232579
  H         3.0905841544        5.1162597737       25.1931936840
  C         2.3849801111        5.6342928365       27.2021387717
  C         5.6119291246       -0.0989675255       29.3120118747
  C         5.3604525644        2.0740675608       30.2814676106
  C         8.8704963958        2.4453984654       20.8622585166
  C         9.2845805458        3.7876836910       20.2094632370
  S         9.1150205336        6.3357741267       20.1361639864
  H         1.4174488965        5.6407392767       26.7567919435
  H         2.6298916737        6.6523278810       27.4455530801
  C         2.3590041631        4.8989807680       28.5651482295
  N         5.7837068180       -1.0927313756       28.3268510681
  C         5.3849037523       -0.6822607969       30.5044228594
  C         5.0590915966        1.5419254720       31.5138914173
  H         5.5048555609        3.1219942532       30.1795982041
  C         7.7332702751        1.7398178072       20.1345254755
  C        10.1736551477        1.5900628591       21.0383853380
  C         9.5456183476        4.0861866672       18.8745246955
  C         9.6353183470        5.4767637570       18.7010213479
  H         1.9830412677        3.9077269688       28.4562798569
  H         3.3475701479        4.8966885092       28.9739521593
  C         1.5829768956        5.5336085637       29.6365398438
  S         5.8563078217       -2.5460859459       29.0823522398
  N         5.3752422774       -2.0970218648       30.4905566899
  C         5.1169419568        0.0551413650       31.6913646313
  H         4.7786631783        2.2724647372       32.2311346972
  H         7.3396683872        0.9444039550       20.7652632299
  H         8.1666118136        1.3001394811       19.2012498501
  C         6.6176171101        2.6655131157       19.7322404751
  H        10.3778836634        0.9360952053       20.1704208354
  H         9.9611542241        0.8501620656       21.8339421256
  C        11.4539440677        2.4315062807       21.3688770550
  H         9.6682000302        3.4019466045       18.0849759291
  C         9.9658305273        6.1346066463       17.3897755354
  H         0.6163566944        5.8358271449       29.1456293074
  H         2.1062465693        6.4637629618       29.8396796213
  C         1.1877191261        4.8259456932       30.9593688506
  C         4.9248736985       -0.5589690312       32.9532917107
  H         6.7914533385        3.3486360646       18.8989452728
  H         6.5415202472        3.4692108313       20.5248043383
  C         5.2119836839        2.0601168733       19.5575237637
  H        11.2070138903        3.2168230250       22.0617016631
  H        11.8167173768        2.8429815973       20.4318223041
  C        12.6280892612        1.5990158967       21.8969162976
  C        10.0214135279        7.5479874607       17.1397646099
  C        10.2239048783        5.2540916790       16.1700089240
  H         0.6106885571        5.5620964936       31.4665700986
  H         0.4257640021        4.0668414083       30.6780842460
  C         2.3907625895        4.4098019010       31.9191821301
  H         5.0148196942       -1.6528146406       32.9914396393
  C         4.5330223554       -0.0760800566       34.1518478607
  H         4.3868814607        2.7747575921       19.3110651971
  H         4.9295509984        1.7340314805       20.5286178884
  C         5.1783137139        1.0071043904       18.4436041591
  H        12.3119038711        0.8057615626       22.5958104192
  H        12.9166844029        1.0306754474       20.9818462947
  C        13.8071407010        2.4374308356       22.3256577943
  N         9.9162303463        8.5460949571       18.1125167680
  C        10.2163197024        8.0890944122       15.8705770448
  C        10.5469161081        5.7633602309       14.9339436489
  H        10.1939609663        4.1750684551       16.2863764884
  H         3.0490669831        5.1938559841       32.2478217582
  H         2.0564480172        4.0117223024       32.9167016644
  H         2.9383258913        3.5875054621       31.3968593809
  S         4.1154730544        1.5550000818       34.5367662016
  C         4.5695906811       -0.9927883054       35.2935845048
  H         6.0125324527        1.1533702847       17.7265376162
  H         5.1963726643        0.0499605575       18.9451386148
  C         3.9258014709        0.9145280276       17.5646777728
  H        13.3590719917        3.2070183784       22.8863436941
  H        14.2090563598        2.8851741172       21.4008938691
  C        14.8394518294        1.6348781599       23.1193255212
  S        10.0562829207       10.0386125608       17.4273211710
  N        10.2814777415        9.5284743305       15.8671597490
  C        10.5391335270        7.2716926735       14.7359258306
  H        10.7428526668        5.1104856185       14.1176584230
  C         3.9828671709        0.9989940427       36.2257177801
  N         4.2290216932       -0.3255961943       36.3751922115
  O         4.7302417264       -2.2209752266       35.1610620304
  H         4.0614093001        0.3968275063       16.6392336952
  H         3.5707485707        1.8887962207       17.2806812741
  C         2.6377106053        0.4974153933       18.2741015280
  H        14.3803259558        1.0174530538       23.9365797304
  H        15.2173147390        0.9620191047       22.3419087668
  C        15.8866839746        2.6169266533       23.6334024012
  C        10.8721045384        7.9243245438       13.5496154633
  S         3.7732937653        2.0460046357       37.6021986276
  C         4.3057563180       -0.9910158319       37.5616057039
  H         2.8035809746        0.2780968692       19.3258813353
  H         1.8271136041        1.3072685444       18.2567726849
  C         1.9735938642       -0.6328802576       17.5066609337
  H        15.5404816010        3.0297203416       24.5529479315
  H        16.0070725444        3.5422653691       22.9312184859
  C        17.2198459025        1.9430403429       23.5567760135
  H        10.3406644213        8.8572208723       13.4545738748
  C        11.4384321962        7.6192235161       12.3639452379
  H         3.5788028027       -0.5624648753       38.2627860230
  H         4.0035949177       -1.9915214442       37.5113548311
  C         5.7198926039       -0.9008546353       38.0491810280
  H         1.8770671045       -0.4037492778       16.4109319569
  H         0.9182380268       -0.7179760814       17.7814761388
  C         2.6730215245       -1.9587484528       17.6564596510
  H        17.8706198592        2.4140106927       24.3140517497
  H        16.9106113879        0.9352043475       23.6811545078
  C        17.7309425057        2.1133180086       22.1097465856
  S        12.1538043335        6.1303884241       11.9449143293
  C        11.5671696622        8.7157793082       11.3721659132
  H         6.3088186591       -1.7823295706       37.7539873386
  H         6.2491091128       -0.0277810559       37.6806453662
  H         5.6934061291       -0.9091497115       39.1594860553
  H         3.7252663880       -1.8423371867       17.4208331140
  H         2.2135695612       -2.6740321577       17.0350104093
  H         2.6129026517       -2.2871363822       18.6954592932
  H        18.4671717310        1.3951810472       21.8246049535
  H        18.1441780693        3.1444906852       21.9848722810
  H        16.9615713993        2.0531141453       21.2875581842
  C        12.5250030731        6.8378768520       10.3819212463
  N        12.2795628901        8.1848024287       10.2991254037
  O        11.3041681218        9.8959465092       11.5106987811
  S        13.3876829170        6.0028035088        9.1451764051
  C        12.4559900013        9.0709504398        9.0960140105
  H        12.3535933757       10.1347151920        9.4728991134
  H        13.4027978486        9.0932758483        8.6228550142
  C        11.3249823999        8.7247106896        8.1695591918
  H        11.2222899224        9.4110272740        7.2743709405
  H        11.2969936570        7.6466762873        7.8279169121
  H        10.3919228937        8.9723303237        8.6827441599
  H        -3.8125779629       14.1597660510       16.0649483478
  C        -3.4123147155       13.1812056155       16.0791955686
  H        -4.2104286592       12.5850927234       16.4565301546
  C        -2.2913799995       13.2013116610       17.0843561990
  C        -2.8260467324       12.9528379825       14.7018332464
  C        -2.7372691229       13.4865257288       18.5330056619
  H        -1.6872081893       12.2651961637       17.2318451369
  H        -1.5944979446       13.9783611960       16.7838523348
  H        -2.5166110309       11.9221118549       14.6150985792
  H        -3.6169680060       13.0649952046       13.9044059493
  H        -1.9744665712       13.6499333088       14.4059883882
  C        -1.7084250478       13.1667507350       19.6710151863
  H        -3.5570393141       12.8618290128       18.8243135879
  H        -3.1930885952       14.5016638474       18.5787675682
  C        -2.3175718854       13.1651245980       21.1030447470
  H        -1.0921162318       12.2745597339       19.4442334578
  H        -0.9795020692       13.9594691120       19.6347576342
  C        -1.4156223013       12.8546669602       22.2784714196
  H        -3.1510105261       12.4072167571       20.9871453078
  H        -2.8042140588       14.1203505133       21.4129754120
  C        -0.1343878789       13.6423959765       22.3195844160
  H        -2.0685804497       12.9261626428       23.1632760214
  H        -1.1112822844       11.8048880178       22.3852796465
  C         0.9550769394       13.0526517809       23.2843766768
  H         0.2379868006       13.5769910647       21.2677243713
  H        -0.2863082381       14.6816398390       22.6121244067
  C         1.4804797901       11.7285678693       22.6688022286
  C         0.4748097186       12.2901488607       24.4969021954
  C         2.1296390231       14.0630499788       23.5251229939
  C         1.1331416273       10.5756523885       23.3631536180
  C         2.0337094293       11.3562740799       21.4420445054
  C         0.5887250238       10.9279788018       24.5798273717
  C        -0.0545530300       12.8950957795       25.6856211716
  H         2.4134314796       14.5675182557       22.5258288533
  H         1.8346543584       14.7655296393       24.2603538074
  C         3.3627211530       13.3599297912       24.0352149465
  S         1.5138906863        9.0960546989       22.5991382717
  C         2.1930442169       10.0185154285       21.2676184920
  H         2.2886299804       12.1211529403       20.7298286970
  C         0.0753937288       10.3189172835       25.7049385735
  H         0.0625534319       13.9833092888       25.7306026622
  C        -0.4785728207       12.2457451520       26.8227124621
  H         3.7457846838       12.5580749438       23.3529110760
  H         2.9869996423       12.9404396655       24.9278182400
  C         4.5555217680       14.2113847335       24.5065139760
  C         2.6475200815        9.3132804763       19.9985145963
  C        -0.4406741357       10.9038515174       26.8600131178
  H         0.1660568783        9.2209211183       25.6545261420
  C        -0.8892993829       12.6218723000       28.0555734651
  H         5.1389510324       13.6852585824       25.2796578797
  H         4.1192534446       15.1356610739       25.0519220320
  C         5.6654377859       14.7795701467       23.5415579286
  C         2.5819209574        7.8879943958       19.7763759467
  C         3.0290532229       10.1537047197       18.8577852932
  C        -0.8918465030       10.1976561370       28.1082762244
  C        -1.0832593840       11.5485492770       28.8665042199
  S        -1.0668126190       14.1033194028       28.9607765414
  H         6.4389951948       15.3323330213       24.1374064038
  H         5.1658072389       15.3909743379       22.7706817043
  C         6.3421582831       13.5851144250       22.8539302899
  N         2.3470247979        6.9287522979       20.7584946093
  C         2.8417229193        7.3951684043       18.5500814990
  C         3.3413050387        9.6375131868       17.6202857470
  H         3.1890195233       11.2087226237       19.0328951300
  C         0.2174272392        9.4217583800       28.8432126748
  C        -2.1231344786        9.3314540250       27.9145871232
  C        -1.3925077394       11.9327120050       30.1663022172
  C        -1.3038566220       13.2499405078       30.4292534853
  H         6.9412180373       13.1033660145       23.5941046521
  H         5.6153288399       12.8728243637       22.5377234006
  C         7.2080461281       13.8623129552       21.6474002620
  S         2.3976147705        5.4445529717       20.1384195013
  N         2.9366671220        5.9574471023       18.6487824608
  C         3.2258523758        8.1910390637       17.4276879507
  H         3.6930829599       10.3128230031       16.8719428466
  H         0.5045037200        8.5650316899       28.1808054681
  H        -0.0536415524        8.8207378338       29.6976872119
  C         1.4653890103       10.3000044587       29.1868716577
  H        -1.8499393836        8.6461394214       27.1660999794
  H        -2.2450509670        8.7233356439       28.8287395652
  C        -3.3877140981       10.0378120073       27.4517998195
  H        -1.4321574783       11.2180340366       30.8971708853
  C        -1.5064936485       13.8924727165       31.7902117034
  H         8.0544343781       13.1991462821       21.7896541453
  H         7.4767819136       14.8965536636       21.7287405704
  C         6.3989670939       13.6839690136       20.4022712289
  C         3.4350562805        7.4139425843       16.2400565416
  H         1.7148883819       10.9208980436       28.3428711912
  H         1.3847494222       10.8957177110       30.0887630650
  C         2.6086819979        9.3844389567       29.3762572531
  H        -3.1990412511       10.6657875415       26.5781172979
  H        -3.7704103067       10.7251756446       28.1893358858
  C        -4.5750302880        8.9835712756       27.1640734335
  C        -1.6211266623       15.2285955228       31.9521998526
  C        -1.6061383513       13.0767891453       33.0231806704
  H         6.0304853162       12.6931194905       20.4141550523
  H         5.5291361145       14.3725516425       20.4692698504
  C         7.1754999315       13.8047334782       19.0821534926
  H         3.7252326801        6.4133757758       16.3392085556
  C         3.6522114220        7.8741657683       14.9549760393
  H         2.7855810208        8.7530082427       28.5390683474
  H         2.3974890694        8.7137527843       30.1800655955
  C         3.8236584499       10.2460581545       29.8302081654
  H        -4.2579939791        8.3119162146       26.2919404999
  H        -4.7759677383        8.4208604956       28.0867500866
  C        -5.8928824783        9.7772800820       26.8561337806
  N        -1.5578953753       16.2052570225       30.9700488241
  C        -1.9320489657       15.7589960160       33.1385796329
  C        -2.0249965335       13.6052878392       34.2419133390
  H        -1.3684016132       11.9733065634       32.9464044171
  H         7.9311917464       13.0028552716       19.0344578007
  H         6.5040724112       13.6002763218       18.2387808245
  H         7.7428774678       14.7484416602       19.0853092764
  S         3.6133920886        9.4651249036       14.3411873345
  C         3.8242690543        6.8203503149       13.9242826750
  H         4.2077009852       10.7662573071       28.9179837182
  H         3.5120373660       11.0983295714       30.3599731797
  C         4.9599840560        9.4783157153       30.5126096567
  H        -5.7377082680       10.9195499883       26.9524557192
  H        -6.6251262387        9.5714072440       27.6388648112
  C        -6.4536297026        9.5018491925       25.4736413950
  S        -1.7051054444       17.6927263338       31.6321006509
  N        -2.1078414600       17.1556743126       33.1526368714
  C        -2.2774586626       15.0863171991       34.3529502016
  H        -2.1474011995       12.9011145728       35.0042194778
  C         4.0015303193        8.8196855946       12.7377873761
  N         4.1337917260        7.4207014915       12.7455433006
  O         3.8025246574        5.6731224431       14.2797607934
  H         4.6017306350        9.0252964185       31.4789151075
  H         5.6559364851       10.2686258359       30.8951096949
  C         5.7165892108        8.5649843065       29.5067072149
  H        -5.6455392794        9.7442743289       24.7884897574
  H        -6.6660729670        8.4343379031       25.5681946783
  C        -7.7938623579       10.3230251891       25.2655291863
  C        -2.7734015377       15.7817609474       35.5041203741
  S         4.7798363466        9.7141655839       11.3679295372
  C         4.4625738543        6.6859868852       11.5852317512
  H         5.1386711641        8.2486109353       28.6572258013
  H         6.5105080725        9.2042549611       29.1489018347
  C         6.5290224434        7.3350861393       30.0245986756
  H        -7.6050533706       11.0759569172       24.5219604842
  H        -8.0677552549       10.8940655014       26.1840832452
  C        -8.9809540948        9.5213068672       24.8170833614
  H        -2.8257815627       16.8276583260       35.4842776848
  C        -3.1945804023       15.3479413222       36.7506909444
  H         5.3163596317        7.0455660535       11.0362832067
  H         4.8383294201        5.7622126250       12.0120222680
  C         3.2642366489        6.2965019020       10.8532652599
  H         7.1730915560        7.6881988925       30.8514228095
  H         6.9657967616        6.8397073212       29.1880965675
  C         5.6236679039        6.2507153911       30.6378863192
  H        -9.6094427130       10.1916446964       24.2534885131
  H        -8.8221398795        8.6797939879       24.1539940564
  C        -9.7538951829        9.2671191143       26.1377647581
  S        -3.5506046246       13.7305600258       37.2535033538
  C        -3.3548891806       16.4137198474       37.7882792444
  H         3.3509181631        5.4279234891       10.1853787200
  H         2.3859046563        6.1668970418       11.5287811062
  H         3.0128541616        7.0676187165       10.1621099082
  H         6.1925478541        5.3093309852       30.7139145845
  H         4.6718015874        6.1159560224       30.1829058787
  H         5.3584530786        6.5644529454       31.6444156569
  H       -10.7898008282        8.8599454975       25.9538724166
  H       -10.0223506073       10.1728594415       26.6875402081
  H        -9.2033131337        8.6665929507       26.8175891738
  C        -4.0990929392       14.4263180084       38.7825006090
  N        -3.8898826385       15.8044129990       38.8562246060
  O        -3.0059460752       17.5649012565       37.7007563861
  S        -4.6344284760       13.5332748857       40.1861176898
  C        -4.1692328331       16.5258221664       40.0822562160
  H        -4.1831309487       17.5631637360       39.8545862411
  H        -5.1301878880       16.2045379188       40.3707965449
  C        -3.0748733753       16.2366802578       41.1377363347
  H        -2.1405762434       15.8851406169       40.6410837464
  H        -2.8742575904       17.1595712106       41.7011692817
  H        -3.3336795295       15.4755148813       41.8338873759
