352
 i =    71300, time =    71300.000, E =        24.8329698433
  H        12.4432449114        5.0948944478       32.1293268757
  C        11.5330488563        5.5382607915       32.2562389008
  H        10.8752444720        4.6435899747       32.3119667000
  C        11.0349932234        6.6122474283       31.2278376962
  C        11.3667746107        5.9822981196       33.7183788850
  C        11.4497507150        6.0859396076       29.8731712243
  H         9.9286916263        6.8011634045       31.3035891404
  H        11.4651784348        7.6343283004       31.3495416986
  H        12.2617799900        6.2228542514       34.1169480602
  H        10.6547349106        6.7961748607       33.9123295442
  H        11.0365289621        5.2513470200       34.4192924641
  C        10.3276938877        5.9731754490       28.8341161058
  H        11.7703317997        5.0199849895       30.0155691817
  H        12.2688814017        6.7281570019       29.4913290239
  C        10.8763083080        5.8832454763       27.4288661843
  H         9.6362833894        5.1412664261       29.1433516141
  H         9.8185143902        6.9537299736       28.8855461331
  C         9.9600774642        5.2350713553       26.3929863006
  H        11.9766934348        5.4894204586       27.4277190038
  H        11.0729825319        6.8541433889       27.1291668462
  C         8.7078145270        6.0468598425       26.1090761519
  H        10.6300476477        5.1914728975       25.5227043061
  H         9.7930422568        4.1904233096       26.6262667549
  C         7.4779613309        5.2750406901       25.6417389905
  H         8.3713367711        6.4415612290       27.0682856203
  H         8.9728529171        6.7861532320       25.3246084755
  C         7.2213898069        3.9038372886       26.3113350422
  C         7.9203348758        4.5978725337       24.3540798753
  C         6.2362379718        6.1446226045       25.5092162180
  C         7.5202893359        2.8211884656       25.4977299514
  C         6.8580364769        3.4902115802       27.5511334750
  C         8.0142057160        3.2238743604       24.3107078011
  C         8.2390684531        5.1897134744       23.1739540339
  H         6.1435096348        6.5121404764       24.5252154662
  H         6.4060783992        6.9556744600       26.1901885739
  C         4.8702280890        5.5385632902       25.9029411799
  S         7.1856567883        1.2458344414       26.1041102425
  C         6.6746234539        2.1128313331       27.5971639711
  H         6.4334683426        4.1816473355       28.2505984950
  C         8.4674475803        2.6741653370       23.1689826490
  H         8.1197873477        6.2580577832       23.2538382733
  C         8.7052526160        4.6247141968       22.0151843592
  H         4.7860861061        4.5586859254       25.4713612050
  H         4.8015231802        5.4122757897       26.9888489774
  C         3.7398849409        6.3657701432       25.3503896639
  C         5.9833711371        1.4061764968       28.8043962313
  C         8.8011136683        3.3118714754       21.9744794301
  H         8.4988181759        1.5827225810       22.9842645670
  C         9.2236193392        5.0323038234       20.7996706460
  H         3.3211370635        5.7950022983       24.4986562807
  H         4.0318417317        7.3802229733       24.9706690470
  C         2.7288576909        6.5319925782       26.3711575118
  C         5.9559656312        0.0844033235       29.1019325548
  C         5.3544984322        2.2230771887       29.9329406875
  C         9.1610965433        2.6002686397       20.7226354930
  C         9.3133445537        3.9366920940       19.9727555002
  S         9.4374963447        6.5944867891       20.0504527948
  H         1.9682241594        7.2262933270       25.9131506583
  H         3.2132926480        6.9709608620       27.2643520314
  C         2.0144164158        5.2100551370       26.7556344644
  N         6.2284802402       -0.9200657571       28.1484614975
  C         5.7178635500       -0.4612754056       30.3253257738
  C         4.9386076838        1.6593867413       31.1361639915
  H         5.3539757088        3.3001554300       29.7977155881
  C         7.8801280233        1.8785429080       20.2205284596
  C        10.5225376512        1.7223260768       20.7422572266
  C         9.7164974318        4.3555516539       18.6619135991
  C         9.7695466213        5.7427544306       18.5712451925
  H         1.3771651121        4.8711422143       25.9881790562
  H         2.7779599794        4.4261359855       26.8170660495
  C         1.3720141756        5.4807355262       28.1899639618
  S         6.3387366850       -2.3623064878       28.9160732854
  N         5.9098139483       -1.8822686050       30.3581410486
  C         5.2493672067        0.2393930401       31.4526124581
  H         4.3069796064        2.2543765619       31.8084464391
  H         7.5676966541        1.1646240674       20.9781981846
  H         8.1809379123        1.3036138743       19.2720317965
  C         6.6746104356        2.7765133950       19.8996106813
  H        10.7046513688        1.3748081404       19.7249066753
  H        10.3408857933        0.8521095569       21.4111162269
  C        11.6656794525        2.5647177566       21.4411546154
  H         9.7525610469        3.6929614685       17.8241790449
  C        10.0673018186        6.5159833351       17.2776077936
  H         0.6483917985        4.6834867822       28.4909153058
  H         0.8112727410        6.4553706947       28.1861957520
  C         2.3821554683        5.5523411188       29.3552039602
  C         5.0387551111       -0.4216860916       32.7140868447
  H         6.9617883674        3.3305965988       19.0519620855
  H         6.5416861767        3.5349702502       20.7195864524
  C         5.4019042184        1.9265979699       19.5580851062
  H        11.5281483077        2.8497960617       22.5281567617
  H        11.9220111505        3.5098338722       20.9064138255
  C        13.0284189278        1.8124666764       21.5265450721
  C        10.1409544037        7.9181558132       17.1430742396
  C        10.2782067504        5.7259969344       16.0195768674
  H         3.0031332066        4.6662504990       29.1595572969
  H         3.0615543032        6.4254726238       29.1543014821
  C         1.7348575973        5.6362033436       30.6282237940
  H         5.1626091627       -1.5157117098       32.6645793162
  C         4.7519175532        0.0870655873       33.9631442817
  H         4.4803232791        2.4689813760       19.4079867198
  H         5.2357151293        1.3211276415       20.5306300099
  C         5.4969515603        0.9871960699       18.3003627583
  H        12.9648449554        0.9485222099       22.1859899063
  H        13.4318583297        1.3666059184       20.5638768367
  C        14.0973742464        2.7590559841       21.9988865278
  N         9.9048045159        8.8240765334       18.2311095916
  C        10.4425867345        8.5698969977       15.9805713607
  C        10.5390396412        6.3513232718       14.8351625838
  H        10.2595975337        4.7203241260       16.0062307262
  H         0.9845282335        4.8915932926       30.8158660741
  H         2.4256745182        5.4396016586       31.4629523543
  H         1.2975379310        6.6330759185       30.7621214541
  S         4.5002723195        1.7145166548       34.4043524508
  C         4.6428451491       -0.8468918988       35.0885293866
  H         6.2357999300        1.4765893965       17.5949426223
  H         5.7738868514       -0.0034117839       18.4619637936
  C         4.1891577176        1.1293620843       17.5231188751
  H        13.6431876787        3.4061542296       22.7784352130
  H        14.3705602533        3.4407992323       21.1983853660
  C        15.4447897715        2.1859683703       22.3468385447
  S        10.1026170722       10.3445154265       17.6616556007
  N        10.4156257993        9.9499415460       16.1250254783
  C        10.6675228448        7.8389493696       14.7264765442
  H        10.7845406634        5.7118092345       14.0409489823
  C         4.2787028455        1.1293255037       36.0769750858
  N         4.3547606654       -0.2330242802       36.2539311419
  O         4.8114021633       -2.0565916870       34.9088778953
  H         4.4233994019        0.6240230054       16.5771910044
  H         3.9838752607        2.1066059550       17.1116894071
  C         3.0695070699        0.3542358954       18.1149725209
  H        15.1612874663        1.3564954257       22.8994094174
  H        16.0066870376        1.8030290118       21.4945273598
  C        16.2438479487        3.1373099538       23.2683308642
  C        10.9833062591        8.6685544872       13.5960841704
  S         3.7902428467        2.1415481210       37.4076296627
  C         4.3311749141       -0.9446797341       37.5320582415
  H         3.1500280554        0.2821198646       19.2241569339
  H         2.2137435914        0.8203819579       17.7866885903
  C         3.1105408962       -1.0947215028       17.6082242564
  H        15.5606399198        3.3012504310       24.1113349543
  H        16.4942154467        4.1175645053       22.7216031819
  C        17.5068617896        2.3746351568       23.7617244184
  H        11.0197366411        9.7319640911       13.7545168193
  C        11.3223446627        8.4343595724       12.3257413039
  H         3.5666365639       -0.5072259744       38.0546231171
  H         4.0526515839       -1.9612920966       37.5494960601
  C         5.7917637252       -0.8162540562       38.1465851783
  H         3.0752052745       -1.8623140564       18.4364207819
  H         4.0434555427       -1.2674017551       17.0008396951
  C         2.0539118246       -1.4102306227       16.6598904493
  H        17.8994697382        2.6654509379       24.7592869030
  H        17.2038231311        1.3116617992       24.0045437827
  C        18.6828017177        2.3247444141       22.7861458657
  S        11.7447869113        6.8859676245       11.7266877276
  C        11.6000120687        9.5502574840       11.4034345908
  H         6.0431511195       -1.4288105955       39.0491005109
  H         6.5888505923       -0.9283699732       37.3875054108
  H         5.9014231109        0.2534289942       38.2930823562
  H         1.0578772412       -1.5098074550       17.0804205983
  H         2.2737095369       -2.1788453223       15.9250290800
  H         1.8300954062       -0.5285378331       16.0699765044
  H        19.2211425885        3.2263866761       22.6223838224
  H        18.3984080664        1.9370883437       21.7854869770
  H        19.3737900204        1.6066587600       23.2228282143
  C        12.3556732579        7.7647841056       10.2930833132
  N        12.1875782212        9.0700891888       10.2892015735
  O        11.3886811921       10.7290476565       11.5695389180
  S        13.1396801654        7.0049626802        8.8603932220
  C        12.4105222595        9.9044073222        9.1389495971
  H        12.8912852606       10.8611680593        9.5514297996
  H        12.9676694819        9.4865514351        8.3513547465
  C        11.1200637176       10.2713622940        8.4908392865
  H        10.4810660601        9.4502247127        8.1121772941
  H        10.4956844494       10.7762537257        9.1269028848
  H        11.3703467121       10.8821497462        7.5813148458
  H        -3.2455669259       15.1898451361       16.8371290240
  C        -3.0500019604       14.1114663341       16.8453009209
  H        -3.9620579936       13.5925875042       17.0634786962
  C        -2.0347462503       13.7405795862       17.8891814128
  C        -2.5566141983       13.7482452187       15.4639187787
  C        -2.5274501448       13.4687502586       19.2581551813
  H        -1.3933088633       12.9967225792       17.5023735568
  H        -1.4744581126       14.6472114618       17.9688275390
  H        -1.7753003015       13.0104644236       15.3281823184
  H        -3.5125501032       13.4399203345       14.8789020207
  H        -2.1834058135       14.6715700281       15.0343123256
  C        -1.4103812377       13.1312918015       20.1912328420
  H        -3.2642435475       12.6998298621       19.2086197622
  H        -2.9616095849       14.3869981118       19.6552201578
  C        -1.8316471775       13.0529294383       21.6713754100
  H        -0.9309010531       12.1963091282       19.9091823335
  H        -0.6053018871       13.8409689901       20.0732415750
  C        -0.8517986696       12.3779340549       22.5888033776
  H        -2.8204628680       12.5242857162       21.7089062608
  H        -1.9571572721       14.0031549326       22.1755594263
  C         0.3699093945       13.2846912945       22.8395306799
  H        -1.3507547931       12.1011977177       23.5259204894
  H        -0.5562884006       11.3972651654       22.3257112220
  C         1.5580627437       12.7107380357       23.5899699204
  H         0.6381231297       13.6308552815       21.8737138746
  H         0.1045094523       14.1717247690       23.4262448646
  C         1.9611957356       11.3981250151       22.9206385877
  C         1.1687421329       11.9335556665       24.8018446687
  C         2.7439039537       13.7296233433       23.7113540808
  C         1.8888403180       10.2071974442       23.7570642981
  C         2.3721754445       11.0439753558       21.6172913213
  C         1.2302305048       10.5954769210       24.9258711841
  C         0.6778460690       12.6494602494       25.8766546740
  H         2.8125535809       14.1623136404       22.7448095393
  H         2.3995973842       14.6027679275       24.2263197755
  C         4.0405655474       13.1392387450       24.3697265582
  S         2.3094711882        8.8012359083       22.9098042312
  C         2.5457935321        9.6764714554       21.4229558432
  H         2.2914369704       11.8743174202       20.8624690453
  C         0.6972720638       10.0392859890       26.0867338808
  H         0.6040228331       13.7131395814       25.6451459762
  C         0.1283306088       12.1180083439       27.0301867920
  H         4.5851055572       12.4447881570       23.7636075780
  H         3.8663419155       12.6125178594       25.3293177698
  C         5.0268498739       14.2691833699       24.5529892797
  C         2.8072551802        9.1096582857       20.0401415184
  C         0.1352565647       10.7488340725       27.1498697614
  H         0.7587394594        9.0012670955       26.2236104732
  C        -0.4016040658       12.5261779232       28.2242284977
  H         5.6232422341       14.0505764624       25.4560767663
  H         4.5827371851       15.2282745698       24.8295490119
  C         5.9634128027       14.6107124845       23.3500344989
  C         2.8841738403        7.7608641876       19.6693770129
  C         3.0161286827       10.0229973734       18.8972062396
  C        -0.3461222945       10.0967823605       28.4335951112
  C        -0.6045834247       11.4696183333       29.0668428968
  S        -0.7933570230       14.0842512223       28.9384804070
  H         6.4144358659       15.5426814478       23.6345113377
  H         5.2688318081       14.8317846664       22.4834267870
  C         6.9986009476       13.5830377380       22.9762170790
  N         2.5584051688        6.7210551162       20.4953166524
  C         3.1505358092        7.3071507441       18.3268403412
  C         3.3595744081        9.5896794000       17.5789776152
  H         3.0538985764       11.0667927445       19.1056660273
  C         0.8401914225        9.3207885176       29.0835427462
  C        -1.6624734420        9.3201365430       28.3087420254
  C        -1.0391464498       11.8531684323       30.3281967921
  C        -1.1632416678       13.2257750933       30.4367874356
  H         7.7113985681       13.6418793152       23.7604614187
  H         6.5658035857       12.6076394285       22.8722574841
  C         7.6149477785       13.9365063889       21.6038210335
  S         2.6499066114        5.3208225999       19.6985833854
  N         3.1169203166        5.9204978086       18.2418264162
  C         3.3722178815        8.1368776637       17.2262090141
  H         3.5617086607       10.2675577386       16.8108917668
  H         1.3511197532        8.7065988885       28.3121931897
  H         0.4091993150        8.6325062370       29.7831521851
  C         1.9376223181       10.1604659939       29.7352330868
  H        -1.4475046058        8.4380043395       27.7285609588
  H        -1.9998061872        9.0652333910       29.2395783330
  C        -2.7824763237       10.1094971421       27.6642752812
  H        -1.1401817383       11.0212429988       30.9987939533
  C        -1.6112163561       13.9340644716       31.6632650321
  H         8.5014850472       13.2571563717       21.5046917339
  H         8.0883934474       14.9188984525       21.6198037588
  C         6.7805686165       13.6803940956       20.3928228425
  C         3.6563387410        7.5547478737       15.9449377365
  H         2.2946881775       10.9961383932       29.1003077519
  H         1.4396918253       10.5367805410       30.6202148715
  C         3.0865787225        9.2733030323       30.2346573856
  H        -2.4019126105       10.6152760861       26.7616542393
  H        -3.1343360442       10.8481051505       28.3526728725
  C        -4.0223744083        9.3611955999       27.3248600289
  C        -1.6078870656       15.3317674598       31.7343346372
  C        -1.8839870527       13.1583834989       32.9169584855
  H         6.4359247879       12.7082087136       20.5351053798
  H         5.8586791078       14.2540613127       20.4082325182
  C         7.5907129520       13.6632841492       19.0656888475
  H         3.4738935935        6.5300547358       15.8310777502
  C         3.9291106157        8.0952268339       14.6897788072
  H         3.6196095431        8.6743021519       29.4691934336
  H         2.6998038796        8.5734266187       30.9773515018
  C         4.2005136389       10.1154789117       30.8880064576
  H        -3.8685480302        8.3210851883       26.8897074462
  H        -4.6328296587        9.2424594212       28.1937718663
  C        -4.8693119000       10.1479319637       26.2449074712
  N        -1.2289494757       16.3000954983       30.8073260864
  C        -1.8944951506       15.9514640016       32.9487961777
  C        -2.1664614321       13.8066558887       34.1213585581
  H        -1.8035753025       12.0866970049       32.8719278801
  H         8.0898001107       14.5980315692       18.9339596058
  H         8.3772282111       12.9196905044       18.8979850982
  H         6.9558283510       13.7253413391       18.1691634032
  S         4.2805577250        9.6902869449       14.3126593930
  C         4.0083681532        7.1501981676       13.5586427693
  H         4.3036909105       11.0610764996       30.3972405717
  H         3.9612181272       10.4574627791       31.9002121323
  C         5.6296305791        9.4210002159       30.8016357394
  H        -4.2864085950       10.3970017032       25.3822326470
  H        -5.2470534830       11.0701185754       26.6300509914
  C        -6.2277310751        9.5675502280       25.9581298852
  S        -1.4230694617       17.8013555625       31.3334564599
  N        -1.8545093444       17.3488229831       32.8636224217
  C        -2.2867037616       15.2690662865       34.1532428050
  H        -2.3027439531       13.2482167340       35.0587893025
  C         4.4121254079        9.1493381388       12.6161344466
  N         4.4279675365        7.8234404605       12.4483822795
  O         3.8281145173        5.9406967340       13.6592113447
  H         6.3717615110       10.1372510621       31.2193481584
  H         5.9705259507        9.3304514997       29.7204088119
  C         5.7768971810        8.1657499277       31.6474650052
  H        -6.1800234679        8.5487579383       25.5366382543
  H        -6.7056185913        9.5049773849       26.9180249941
  C        -7.1753144280       10.5285631135       25.2626087898
  C        -2.6743098274       16.0540641762       35.2488742015
  S         5.0067765328       10.1860890995       11.3058888573
  C         4.5351794583        7.2284214999       11.0617492241
  H         5.7013871317        8.4766896125       32.6897471662
  H         4.9169480378        7.4572038689       31.4552645933
  C         7.0487650198        7.4017452203       31.3625032390
  H        -6.7825197146       10.8594840478       24.2897504286
  H        -7.1661388161       11.4888891892       25.7897441604
  C        -8.5803062385        9.8150721029       25.1245378201
  H        -2.4389115869       17.0758446684       35.1737935585
  C        -3.2046676246       15.7603101767       36.4473831903
  H         4.9627456252        7.9512577248       10.3950202012
  H         5.0303887752        6.3118862648       10.9987273773
  C         3.0517963562        7.0229502732       10.6193629209
  H         7.5593254353        7.1859123599       32.3206182366
  H         7.7011017304        8.1028559210       30.7983977664
  C         6.7942069824        6.0707367832       30.7094654235
  H        -9.2781264166       10.1472507965       24.3434493270
  H        -8.3926103633        8.8348254251       24.6779535526
  C        -9.3601575357        9.7254620404       26.4248582808
  S        -3.9641752941       14.2954237631       36.9522108993
  C        -3.3007437954       16.9145328522       37.3889430650
  H         2.3296500650        7.2159764193       11.3403852746
  H         2.7338543283        7.4952849056        9.6915916414
  H         2.8673116563        5.9559564371       10.4706606386
  H         7.7688264583        5.8172395703       30.1726270195
  H         5.9573006330        6.2246507990       30.0336371130
  H         6.7024792162        5.2576402595       31.4615408998
  H        -8.8819662313        9.0354163161       27.1210890626
  H       -10.3563049755        9.4221124536       26.1417240765
  H        -9.4571553543       10.7732754409       26.8075119766
  C        -4.2498508632       15.1552016775       38.4224276070
  N        -3.8780764969       16.4816281177       38.5222312340
  O        -2.8116314533       18.0152282106       37.2092959627
  S        -4.8739934803       14.2519531299       39.8260739793
  C        -3.9157330229       17.2699202427       39.7239528752
  H        -3.9733868155       18.2725937066       39.3775922911
  H        -4.8390665172       16.9725979588       40.3055703018
  C        -2.6317242544       17.0184184520       40.4636100459
  H        -1.9398069996       16.4444577708       39.8456557131
  H        -2.2518757075       18.0357075330       40.5059771320
  H        -2.6863025263       16.6319003987       41.4517153234
