352
 i =    66900, time =    66900.000, E =        24.9661927655
  H        10.8401318336        4.2137942772       31.1894951673
  C        10.8302209085        5.2851850530       31.4154263513
  H         9.8055239350        5.4217637345       31.6812805088
  C        11.2092892764        6.2936900089       30.3364308304
  C        11.5831085697        5.3956016099       32.6831864530
  C        11.9513400331        5.6407935529       29.1745488579
  H        10.2302727435        6.6974160333       30.0059199396
  H        11.7640073017        7.1520841689       30.7653549622
  H        11.9430136899        4.4477003935       33.0590603515
  H        12.4926956264        5.9863499469       32.6042607162
  H        10.9841257595        5.8099320231       33.4761007739
  C        11.0466416958        4.8973161100       28.2420824795
  H        12.7252929163        5.0414190749       29.6019593445
  H        12.4667160199        6.4643188759       28.6826338607
  C        10.4154399650        5.8815621375       27.2142700250
  H        11.6668366128        4.1464096747       27.6460633368
  H        10.2132765733        4.4159058187       28.7676827169
  C         9.3222699804        5.0532806540       26.5121774361
  H        11.1452962357        6.2120484244       26.4943440873
  H        10.0146706732        6.7545856971       27.8305027707
  C         8.1470714051        5.7315335383       25.9284396296
  H         9.6922008015        4.3115591442       25.8424812654
  H         8.7996733359        4.4587073088       27.2007964770
  C         7.1661207478        4.9220219081       25.1417714497
  H         7.6632238784        6.1330008799       26.8969451949
  H         8.5255684034        6.5874340536       25.4130110265
  C         6.8600012588        3.5730570097       25.8458458747
  C         7.8564891807        4.2161243043       23.9817813624
  C         5.9961488258        5.7430456761       24.5706163043
  C         7.3084237991        2.4486100622       25.1166805441
  C         6.3633325363        3.1548001925       27.1099521312
  C         7.8672494895        2.8713465073       23.9047124232
  C         8.4269480516        4.9216945164       22.9365497687
  H         5.6703598256        5.2798423523       23.6182251328
  H         6.4521302922        6.7097317133       24.4906799149
  C         4.8064110289        5.9671469002       25.5605633768
  S         6.9994522784        0.9235841069       25.9317491822
  C         6.3865584540        1.8144003527       27.3380498349
  H         6.0292813207        3.8943399806       27.7826241014
  C         8.3573084504        2.2891950563       22.7434970887
  H         8.3262879837        6.0369635035       22.9839002635
  C         8.9684353306        4.3912845245       21.8259902669
  H         4.5487178596        5.1559907358       26.2490965368
  H         5.0410785860        6.8490646173       26.2822886070
  C         3.5026659184        6.4294173531       24.8738846717
  C         6.0853592901        1.1229583010       28.6907886190
  C         8.8940619047        3.0453518360       21.6677726675
  H         8.3245707033        1.2189664435       22.6660350130
  C         9.4092932282        4.8302301808       20.6364539119
  H         3.1499377039        5.6187494219       24.2726321800
  H         3.7040221330        7.2861472862       24.2594109495
  C         2.5257269663        6.7757135975       25.9791270238
  C         6.1377054831       -0.2552625905       29.0005836224
  C         5.6856341809        2.0248858371       29.7814869461
  C         9.2554199508        2.3986261386       20.3771315232
  C         9.5747287461        3.7508196488       19.7660720541
  S         9.8235273359        6.3201966497       19.9277881404
  H         1.8833852420        7.6231307471       25.6140015181
  H         2.9953748666        7.1521869128       26.8739807760
  C         1.7096782889        5.5217523717       26.3245258123
  N         6.6051679676       -1.2409737020       28.1554614104
  C         5.8269232574       -0.6974708807       30.2767499646
  C         5.4279107573        1.5820980628       31.0754315383
  H         5.5740556526        3.0114680415       29.5870097090
  C         8.0829352357        1.6712627472       19.7287788024
  C        10.4804522820        1.4960625296       20.5843108860
  C         9.8272171288        4.1699114191       18.4576337216
  C        10.1046233453        5.4658198302       18.4039970549
  H         0.9102844348        5.3410555290       25.6142026595
  H         2.2863657556        4.5369477541       26.3762515816
  C         1.0217532289        5.6661492756       27.6929012457
  S         6.7557551179       -2.6706186215       29.0123094973
  N         6.0869419646       -2.0501402367       30.3500320273
  C         5.6238267658        0.1263482782       31.4045043765
  H         5.2248820650        2.2625914310       31.9233804221
  H         7.8240546466        0.8507877693       20.3860866631
  H         8.3518106234        1.2230567941       18.8039573956
  C         6.8098593193        2.6295824805       19.5899805763
  H        10.8747535750        0.9594430652       19.7048515756
  H        10.2857127204        0.6616276879       21.2918889533
  C        11.7228743485        2.1548267590       21.1939545818
  H         9.7570902201        3.3930948010       17.6642962776
  C        10.4921303037        6.1556635769       17.0963707605
  H         0.1843139592        4.8614800375       27.8251654765
  H         0.3887820268        6.5477237195       27.6355339181
  C         2.0697568025        5.3813524730       28.8307747903
  C         5.3458819035       -0.4998987146       32.6604762681
  H         7.0076886669        3.2223673343       18.7375500418
  H         6.7121477506        3.3716134350       20.3852999145
  C         5.4781913321        1.8084222185       19.4000162688
  H        11.4816395160        2.7953674011       22.1184280879
  H        12.2846689612        2.8393053036       20.5297196053
  C        12.8205225434        1.1746692337       21.6402293207
  C        10.4370155215        7.5802352556       16.9008099053
  C        10.6838878408        5.2537719504       15.8851761833
  H         2.4474598480        4.3807931263       28.6036411182
  H         2.8857562325        6.0730270377       28.7423184448
  C         1.5564257841        5.4857842494       30.2252169763
  H         5.4016717423       -1.5901701737       32.7009075440
  C         5.1181848038       -0.0270676522       33.9504087884
  H         4.6226898125        2.3411139816       19.8777882000
  H         5.5876298759        0.8593139236       20.0137141132
  C         5.1390100804        1.4827028817       17.9982080382
  H        12.5188194222        0.4331707477       22.3627251016
  H        13.1650082246        0.5204418313       20.7738688366
  C        14.0396594442        1.8590650489       22.1848801456
  N        10.1840776653        8.5604913599       17.8810007129
  C        10.7973737113        8.0956557260       15.6648898133
  C        10.9752081084        5.8382206216       14.6352372034
  H        10.7471640308        4.1897214513       16.0058520729
  H         1.2023811876        4.4808426263       30.5969667268
  H         2.3079551053        5.6125808857       30.9406153528
  H         0.8138469382        6.2340031181       30.2146654812
  S         4.8657131194        1.6997635188       34.3794509377
  C         4.9722065342       -1.0694647880       34.9903043496
  H         5.3813373428        2.3155854676       17.3539121119
  H         5.6623856601        0.5742496561       17.6399287706
  C         3.5979055708        1.2445137486       17.8203070088
  H        13.9704692658        1.9506792436       23.2722223459
  H        14.1351643959        2.8723602818       21.7982775806
  C        15.2406114668        1.0188794080       22.0025868082
  S        10.2823244630       10.0150689884       17.2079390078
  N        10.9142668269        9.5430063756       15.7983298859
  C        11.0462343926        7.3240840221       14.5220282191
  H        11.0091535651        5.2887928004       13.6690009859
  C         4.5441187163        0.8925621654       35.9931460038
  N         4.6255538593       -0.4671952142       36.1205353320
  O         5.1346735207       -2.2763302431       34.7521244660
  H         3.4040077989        0.9169803132       16.7806481032
  H         3.1521373295        2.1615953411       18.0058845958
  C         3.0322573508        0.1739799580       18.7907533471
  H        15.1493417453        0.1913721528       22.6141919062
  H        15.4103492158        0.7457340731       20.9650758484
  C        16.4603425506        1.8078150553       22.4304303224
  C        11.3623505991        8.0734883600       13.3225745007
  S         4.1365781247        1.7917830400       37.4279514768
  C         4.3460746374       -1.3128158148       37.2544923821
  H         3.4347589076        0.3005156255       19.7668192491
  H         2.0081534517        0.3338032023       18.9558585632
  C         3.1648020136       -1.2739064727       18.1855910462
  H        16.2216051990        2.1810179715       23.4193765423
  H        16.6527946491        2.5840217057       21.6856399139
  C        17.7629310617        0.9876468174       22.4521446435
  H        11.2515532193        9.1382477712       13.4584100112
  C        11.8859710149        7.8412682614       12.1268132392
  H         3.5728818555       -0.7867215257       37.9157807662
  H         3.7850308351       -2.2076488548       36.9767618415
  C         5.6627818402       -1.6555237997       38.0728198769
  H         2.5620689824       -1.7432133037       18.9482591538
  H         4.1679219487       -1.6940067203       18.3239743457
  C         2.5065580314       -1.5390756907       16.8630550747
  H        17.7936177230        0.4390767592       23.4303909535
  H        17.6612381475        0.2874550918       21.6574895614
  C        18.9736559145        1.9196306998       22.6506591828
  S        12.6722095302        6.3681811104       11.6676417539
  C        11.9307781562        8.9364664092       11.1737643558
  H         6.2606652918       -0.7538549431       38.0838922746
  H         5.4212982061       -1.9650066802       39.1118319063
  H         6.2415404625       -2.4191046603       37.5963895444
  H         1.5878926672       -0.9966084532       16.8371668644
  H         2.3134590720       -2.5453189845       16.7879003810
  H         3.2086293181       -1.2610840483       16.0892304215
  H        18.8823049296        2.4133848227       23.6049260700
  H        19.0521526727        2.6614262290       21.8547387009
  H        19.8626200016        1.3859728684       22.7450833588
  C        13.0608916207        7.2748981827       10.1694730553
  N        12.6980174219        8.6108004484       10.1236899559
  O        11.5063681913       10.0932138131       11.2319108622
  S        14.0962721311        6.8188406140        8.8414186698
  C        12.7723162274        9.5833422071        9.0431475983
  H        13.1161560834       10.4977121318        9.3843478772
  H        13.5626736485        9.3146281411        8.3598520935
  C        11.4611439117        9.7038654812        8.2293309810
  H        10.7492491679       10.1897870144        8.7745540175
  H        11.6180298946       10.2467007632        7.3034133109
  H        10.9517404665        8.7042287724        8.0736957832
  H        -1.2669166989       14.4250005837       16.5806660843
  C        -2.3246231869       14.3672917150       16.5044961506
  H        -2.7997631302       15.3426606188       16.2909962954
  C        -3.0267173127       13.8971780104       17.7817411898
  C        -2.8122737111       13.4278426161       15.3675979843
  C        -2.5797733230       14.6789552435       19.0750635596
  H        -4.0626450750       13.8023207864       17.6726318298
  H        -2.6644231239       12.8945195683       17.7911696521
  H        -1.9583110764       12.6862423817       15.2332885526
  H        -3.8285827026       13.0583895734       15.5074371813
  H        -2.9116630000       14.1127412828       14.5530098899
  C        -1.6397429903       13.9185132814       20.0745491671
  H        -3.4497094003       14.9846096615       19.6082132208
  H        -2.0633154770       15.5649972513       18.7986624377
  C        -2.0324477853       14.1436906295       21.5587434237
  H        -1.8367036887       12.9086096616       19.8048357500
  H        -0.5644447109       14.1495651419       19.8854150179
  C        -0.9970857384       13.3683320332       22.3635928407
  H        -3.0691098069       13.7547301953       21.7538552653
  H        -1.9536107285       15.2217163340       21.7419567402
  C         0.1357209067       14.2893221409       22.7249107524
  H        -1.4877633828       12.9725325261       23.2081626109
  H        -0.7282846921       12.5133874213       21.7997988388
  C         1.3514324310       13.6041949663       23.3945827872
  H         0.4532363361       14.7506763998       21.7692757159
  H        -0.1693458246       15.2047544576       23.3349086195
  C         1.5531630427       12.2449032352       22.6588325485
  C         0.9524729815       12.8322706674       24.5334028482
  C         2.6404527273       14.4290508346       23.4875237427
  C         1.3200136014       11.0980655936       23.3902014277
  C         2.0198292493       11.8601533451       21.3251323374
  C         0.9312053500       11.4961693669       24.6404463177
  C         0.5347658945       13.4612656590       25.7330179987
  H         2.9033848627       14.8263599534       22.5162366873
  H         2.4012157352       15.3305795302       24.0989682602
  C         3.7739286359       13.5758976774       24.0460626182
  S         1.7151266027        9.6992902673       22.5807323841
  C         2.1378722197       10.5014859594       21.1921461582
  H         2.2037116737       12.5726557748       20.5440088377
  C         0.5082880256       10.8810283245       25.8128573299
  H         0.7517083401       14.5616123964       25.6212450936
  C        -0.0145929383       12.9385234069       26.8942305440
  H         3.9456537673       12.6841082208       23.4295196480
  H         3.3992108332       13.2182043428       24.9899386201
  C         5.0476461980       14.2818687929       24.3391819756
  C         2.6354499715        9.7639559680       19.9402705397
  C        -0.0077307695       11.5922246298       26.9550265771
  H         0.6244826988        9.8690103777       25.8669332507
  C        -0.3912917333       13.3487049616       28.1630066224
  H         5.5728393891       13.6591094921       25.0758062540
  H         4.9593040429       15.2577860779       24.8307343345
  C         5.8353753653       14.6466597754       23.0368733770
  C         2.6582182408        8.3570485739       19.6974453210
  C         2.9789378696       10.5364824959       18.7141685230
  C        -0.3939956587       10.8811694950       28.2020824831
  C        -0.4330466098       12.2640921626       28.9877748301
  S        -0.6485997713       14.7965814139       28.9740626847
  H         6.5939662534       15.3665688103       23.1500208013
  H         5.1784405339       15.0492594995       22.3407387678
  C         6.5146587439       13.4426165439       22.2800010708
  N         2.2531427631        7.4738127511       20.6919685245
  C         2.8922511856        7.7273463067       18.4209637160
  C         3.3694782033        9.9586651493       17.5287647160
  H         2.9290471352       11.6271591940       18.7766302203
  C         0.7009673562        9.9816146270       28.7166426559
  C        -1.7585124276       10.1150338760       28.1409878868
  C        -0.8266004676       12.5582142556       30.2796174731
  C        -0.9661658063       13.8731080505       30.4621846649
  H         7.0161172811       12.9113331831       23.1284683767
  H         5.7924776065       12.7348569622       21.8943975641
  C         7.4515947046       13.6906568253       21.1011982269
  S         2.2185111031        5.9420423519       20.0413857950
  N         2.7895467018        6.3156388840       18.5288394704
  C         3.3059637819        8.4331932018       17.3044941803
  H         3.7397448382       10.5745007299       16.6954017763
  H         0.7327121405        9.1558676809       28.0214985620
  H         0.3150888856        9.4678289527       29.5439677554
  C         2.0223051592       10.7471220244       29.0169650623
  H        -1.5540067093        9.2634252515       27.5428377412
  H        -1.9677468731        9.7199197191       29.1819671043
  C        -2.9240716655       10.8987928309       27.5677222323
  H        -0.9510953859       11.7621124080       31.0271790685
  C        -1.2650451614       14.5506651109       31.7520370241
  H         8.0350955087       12.7388830096       20.9498597858
  H         8.0794249207       14.5153150884       21.4307152300
  C         6.8424792785       13.8596380099       19.6834103375
  C         3.5022648825        7.7934638788       16.0327817238
  H         2.4544759782       11.0514890460       28.0490396551
  H         1.8711054156       11.5298551655       29.7759791645
  C         3.0561733077        9.6859665093       29.5177660470
  H        -2.7133120968       11.6796307087       26.8303215141
  H        -3.4196839894       11.4827344407       28.4170999278
  C        -3.9800959690        9.9393458835       27.0267486782
  C        -1.2622894389       15.9359769442       32.0264052835
  C        -1.6902465970       13.6864770854       32.8671027966
  H         5.9618154042       13.2774310959       19.6783211272
  H         6.5446544049       14.8303880612       19.4910571147
  C         7.7756001876       13.4614485889       18.5010379066
  H         3.4197190415        6.7336180216       16.1390474715
  C         3.8435052697        8.2491922349       14.7633983268
  H         3.1399744508        8.9739682390       28.6814648623
  H         2.5774169170        8.9899727255       30.2338973091
  C         4.5062657376       10.0929751670       29.7996655789
  H        -3.5052489300        9.4465723785       26.1820763520
  H        -4.1841827023        9.1891672674       27.7661269633
  C        -5.2800419377       10.6409929851       26.6505195554
  N        -1.1275694773       16.9259413740       30.9830599432
  C        -1.5704699309       16.5257817058       33.2431304626
  C        -1.9971730657       14.2296597854       34.0927104234
  H        -1.7833097454       12.6445563084       32.6551493228
  H         8.7244391656       13.9923521206       18.3608163939
  H         7.9829114496       12.3660167403       18.3506055784
  H         7.2816445741       13.6390444540       17.5421153273
  S         4.3283776334        9.8315792064       14.2207436664
  C         3.8824304739        7.2032162185       13.7694073582
  H         4.9348559061       10.7867658474       29.0959141076
  H         4.6135161033       10.4875129410       30.8146976749
  C         5.4779385741        8.9407196510       29.7742406852
  H        -5.0067153106       11.6737955417       26.4853499522
  H        -6.0143609516       10.5077759174       27.4284798375
  C        -5.9362767335        9.9343529984       25.4081732004
  S        -1.1892226660       18.3782284704       31.6753981379
  N        -1.4592587314       17.9543014377       33.2098362494
  C        -1.9378270995       15.7376501370       34.3514278443
  H        -2.3633483625       13.4933404251       34.8220018396
  C         4.4591217908        9.0967006398       12.6542229215
  N         4.2617487375        7.7693278609       12.6212390394
  O         3.4016267375        6.0717141303       13.9592747796
  H         6.5155479469        9.3046645149       29.9961979731
  H         5.3695144670        8.4527646187       28.8171910504
  C         5.3551762864        7.8009388889       30.8378073597
  H        -5.3501863504        9.8392553541       24.5119171268
  H        -6.2812761006        8.9367240883       25.6663402121
  C        -7.2319081311       10.7187861921       24.9339279491
  C        -2.2573590387       16.4134123106       35.5832885715
  S         4.8601867654        9.8666142650       11.1956992134
  C         4.2121562466        6.9191119124       11.4360897489
  H         5.4456897976        8.3374185520       31.7325633098
  H         4.3551910779        7.2806180563       30.8601711798
  C         6.6378525740        6.9867467274       30.8778128460
  H        -7.1819564264       11.0045677978       23.8954969133
  H        -7.3035371038       11.6828442798       25.5339389820
  C        -8.5769383811        9.9088084107       24.9872823067
  H        -2.3800622814       17.4682462776       35.4713537946
  C        -2.7882692459       15.9485915802       36.7978597310
  H         4.9734690029        7.0955407979       10.6570616386
  H         4.4446521928        5.9236453401       11.6370321982
  C         2.8446798888        7.0261572559       10.8495571912
  H         6.7475301083        6.4077119948       31.8023013787
  H         7.4574933973        7.7221658128       30.8062298179
  C         6.8531760089        6.1475572697       29.6795515612
  H        -9.2878294760       10.1236647232       24.1687569586
  H        -8.2691036908        8.9234044113       24.7388606330
  C        -9.3402823952       10.0624044384       26.3301113026
  S        -3.3037552569       14.3966523770       37.2574942403
  C        -2.9220071003       16.9627516835       37.8878991025
  H         2.8908478559        7.9218892026       10.3296893046
  H         2.6404432487        6.1147863368       10.3135673607
  H         2.2034546291        7.0564727687       11.6737473609
  H         6.8604182594        6.6588428599       28.6504553526
  H         6.2610962213        5.2283505443       29.6116704521
  H         7.9173649932        5.7330191883       29.8024260304
  H       -10.1976162841        9.3773193557       26.5467374348
  H        -9.8684258783       11.0102030494       26.4146578602
  H        -8.6658263370        9.9151837673       27.2072550477
  C        -3.6316800706       15.0865850084       38.8723721459
  N        -3.5299184311       16.4418761195       38.9272276654
  O        -2.5770785114       18.0887942949       37.7298811356
  S        -4.2989605552       14.0770824094       40.2091442398
  C        -3.7523936655       17.1938416085       40.0929555993
  H        -4.1151886121       18.1476767646       39.7786813531
  H        -4.5608230161       16.6795562687       40.6679728122
  C        -2.4733588307       17.2577247579       40.9317057579
  H        -2.2870437057       18.3619822096       41.2171612552
  H        -2.5516934279       16.6733741044       41.8858860810
  H        -1.5488596204       16.9823762744       40.4061165279
