352
 i =    71800, time =    71800.000, E =        24.7826664479
  H        12.4854358545        6.5513751299       32.6265609447
  C        11.3875789150        6.3875349616       32.3421036742
  H        11.3310121728        5.3474432333       32.1726296088
  C        10.8851875360        7.0843620322       31.0276971608
  C        10.5690405370        6.6910911729       33.5738052501
  C        11.5271114748        6.3474826476       29.7571302527
  H         9.8300703961        6.9125754467       31.0010513721
  H        10.9597687057        8.1534345092       30.9930351151
  H        10.8381174152        7.7077439035       33.9034436874
  H         9.5152876772        6.6341645422       33.4459337069
  H        10.8120964473        6.0428085658       34.3883156401
  C        10.4863632006        6.2433536356       28.7450135036
  H        11.9096788733        5.4511079949       30.1056676958
  H        12.4157569991        6.8275575202       29.3993497110
  C        11.1104572503        6.0297803608       27.3894320318
  H         9.7877172149        5.4655847890       28.9601763263
  H         9.8097944054        7.0659825949       28.6912850652
  C        10.0621971876        5.4355202035       26.4458754579
  H        11.8685992778        5.3168983956       27.4256285607
  H        11.4779819890        7.0842176242       27.1317790174
  C         8.9235205694        6.3876441823       26.0555204205
  H        10.6058904557        5.2062641004       25.5830848257
  H         9.7232305511        4.4929960238       26.9325589574
  C         7.8586161625        5.5509487820       25.3462567443
  H         8.6039293752        6.8693271931       26.9621243357
  H         9.2835057677        7.2149588029       25.5213648745
  C         7.4604701804        4.2637659013       26.0088002712
  C         8.3234569132        4.8385935366       24.1524476840
  C         6.5760544182        6.2156352973       24.9315696238
  C         7.6479162828        3.1227876875       25.2775002554
  C         6.9651649143        3.8603346116       27.3087794443
  C         8.1629584087        3.5280247902       24.0377637956
  C         8.7085249430        5.5408700325       23.0019809307
  H         6.2793229055        5.7998093817       23.9707977581
  H         6.8345988604        7.2439142281       24.7413439491
  C         5.3683952306        6.0353668117       25.8460543440
  S         7.0486201957        1.6657665959       25.9944214521
  C         6.5712332467        2.4922384559       27.3869462210
  H         6.8249724893        4.7255460560       28.0119339828
  C         8.4544233617        2.9293383376       22.8196262216
  H         8.7687318717        6.5871362380       23.0761822001
  C         8.9402346931        4.9962808982       21.7833335827
  H         5.1365049347        4.9958832298       25.9031166108
  H         5.6109661651        6.3653342029       26.8546009610
  C         4.0942321295        6.6547054833       25.3137577028
  C         6.2615661928        1.8205290931       28.6931936178
  C         8.7277515752        3.6835849897       21.6779068555
  H         8.4172475513        1.8696116469       22.6031491742
  C         9.2413940283        5.3635001456       20.4689757647
  H         3.7450666135        6.0335714186       24.5423821655
  H         4.3971236951        7.5676157499       24.8968820596
  C         3.0028915167        6.8878780464       26.4772609250
  C         6.3048557976        0.3886873063       28.8828140167
  C         5.7662058695        2.6688872371       29.8039673947
  C         8.8571573231        2.9705065473       20.3825544790
  C         9.1839236456        4.2778029044       19.6109298971
  S         9.6076928027        6.7895242613       19.6921145210
  H         2.2015333610        7.5292349265       26.1529083973
  H         3.4985287055        7.3719421483       27.2847801696
  C         2.3936011008        5.5571625946       26.8833839485
  N         6.6181351230       -0.6331649745       27.9319085755
  C         5.9593023111       -0.1259817199       30.1176848398
  C         5.4455648785        2.1258375135       31.0552196222
  H         5.5865939930        3.7497108399       29.6647933513
  C         7.5695196531        2.2212433713       19.8823058096
  C        10.0448242642        1.9248069933       20.3881784797
  C         9.4221197522        4.6327897984       18.2735442275
  C         9.6525060785        5.9931767421       18.1742632876
  H         1.6924641311        5.1820836826       26.1271694911
  H         3.1686336663        4.8455902388       27.0902576669
  C         1.5065762503        5.5671538855       28.1674906728
  S         6.5966341013       -2.0729207541       28.6731209500
  N         6.1107864833       -1.5192885234       30.1388473854
  C         5.4694910921        0.6527274602       31.2040197851
  H         5.2087648240        2.7468881863       31.9346854322
  H         7.2352481878        1.4288132682       20.5746950008
  H         7.7349232666        1.6937313062       18.9663347107
  C         6.3850796692        3.2129242568       19.7045471259
  H        10.2388871594        1.4845511737       19.4040558370
  H         9.6946150231        1.1259756630       21.0240673252
  C        11.3096125707        2.5087198316       20.9517900590
  H         9.5231071625        3.8140491078       17.5586284083
  C         9.8972060281        6.8171235681       16.8947573727
  H         0.7563984182        4.7620217947       28.0305806939
  H         1.0016115504        6.5435339727       28.1919686603
  C         2.4001551250        5.5574806876       29.4044423207
  C         5.0874884128       -0.0038250790       32.4340894052
  H         6.5389954246        3.9492388986       18.8058844730
  H         6.2682205222        3.7147937380       20.6329319647
  C         5.1202770817        2.4208221039       19.4195011634
  H        11.1883837663        2.5975291483       22.0414199013
  H        11.4577289128        3.5226277582       20.6049054671
  C        12.6564571737        1.7777090044       20.7735914395
  C        10.1139115440        8.2418713456       16.7716372592
  C        10.0740800064        6.0604161961       15.5843895657
  H         3.0310031573        4.6809619818       29.3887786728
  H         3.0056914444        6.4353005142       29.4397684112
  C         1.6263155791        5.4221823327       30.7424082670
  H         5.5980394947       -0.9897003054       32.5431254168
  C         4.5795558102        0.3812110934       33.6391091000
  H         4.3121373355        3.1660797901       19.4921236971
  H         5.0203674401        1.6555170361       20.1732605881
  C         4.9613948543        1.8297131828       17.9915440570
  H        12.7279583842        0.9080413845       21.4885346969
  H        12.4447855859        1.3133490399       19.8604580985
  C        13.9597825704        2.6650223015       20.8895150653
  N        10.0609013056        9.2080301525       17.8637512008
  C        10.4991546139        8.8952592770       15.5938674243
  C        10.4199504559        6.7744237598       14.4440043701
  H         9.9234058288        5.0525887922       15.4044225751
  H         0.9798035440        4.5548825609       30.6983939576
  H         2.3911825308        5.2395758774       31.5765843119
  H         1.0391054921        6.3028568060       31.0290027423
  S         4.1069088869        2.0049133939       33.9589339966
  C         4.5636282354       -0.5959109702       34.7736046032
  H         5.3254697171        2.5744966445       17.3538780321
  H         5.6013161145        0.9496968086       17.9782010428
  C         3.5574209087        1.4421611734       17.6706617497
  H        13.8334431286        3.5334510359       21.5614435666
  H        14.3473642143        3.0712473976       19.9711540653
  C        15.1798728507        1.9073911785       21.4899343425
  S        10.3267552719       10.7072327091       17.2849947315
  N        10.6494898457       10.2942646833       15.7891466159
  C        10.7304513759        8.2978378027       14.3161553683
  H        10.6091262976        6.2190194731       13.5115943477
  C         4.0988310543        1.4365932583       35.6080318586
  N         4.3036369693        0.1048335073       35.8603194510
  O         4.6300303954       -1.7927573074       34.6295320670
  H         3.6948330421        1.1768836605       16.6277079445
  H         2.9255772848        2.3182518278       17.8658345318
  C         3.1036402747        0.0925350563       18.2794696862
  H        14.9599829237        1.0084666545       22.1410464432
  H        15.6457064901        1.5347002833       20.5944076671
  C        15.9487345823        2.9393575788       22.3414820493
  C        11.1508359898        8.9996280496       13.1457483768
  S         3.8200511990        2.4239681430       37.0561927663
  C         4.3824905281       -0.5330422934       37.1571491597
  H         3.2904977176       -0.0263746812       19.3080037331
  H         2.0248354792       -0.1177566241       18.2549797602
  C         3.7579042504       -1.1768765630       17.5754473189
  H        15.3953013858        3.3764274166       23.1604216712
  H        16.2647308917        3.7022900935       21.6085707886
  C        17.2189383463        2.2801748720       22.8318554821
  H        11.1430659161       10.0974640813       13.3099819574
  C        11.7182108084        8.5268392399       12.0444194971
  H         3.6015691624       -0.1634677740       37.8708720886
  H         4.2090594766       -1.6454588418       36.9869231479
  C         5.7438948414       -0.4719389926       37.7928022084
  H         3.9687189358       -1.9134434557       18.3199353757
  H         4.6263444329       -0.9119313703       17.0483775976
  C         2.7979339757       -1.7392024140       16.4286894498
  H        17.3360925788        2.6661756907       23.8177458093
  H        17.0639219311        1.2082786455       22.9436142840
  C        18.4475249032        2.3889971591       21.8591119730
  S        12.2500535806        6.9455830859       11.7261425813
  C        12.0329606329        9.4922332185       10.9392330871
  H         6.4751666848       -0.1828298236       37.0701492951
  H         5.7319766312        0.1397834025       38.7073682798
  H         5.9727910580       -1.5121994670       38.0943001528
  H         1.7384071766       -1.8543049742       16.7050454706
  H         3.2094125504       -2.6412732904       15.9912928657
  H         2.7443460439       -1.0350968726       15.5799924676
  H        18.5771749571        3.3960704747       21.4470757455
  H        18.1770058691        1.6602240664       21.1264293787
  H        19.4170791001        2.1755373247       22.3388549797
  C        12.7002151006        7.4943213519       10.1013720905
  N        12.5950339149        8.8146670914        9.9169302457
  O        11.7231128418       10.6922134133       10.8756955300
  S        13.4632923708        6.5763606985        8.7802147023
  C        12.8017105980        9.4161750946        8.6208533830
  H        12.9171902561       10.4244996110        8.9217999631
  H        13.7956509951        9.1062341574        8.1523671718
  C        11.5493255153        9.3169336034        7.7168355479
  H        11.5098785490       10.2105141121        7.0422113697
  H        11.6901520610        8.3802535194        7.1670984527
  H        10.7075134226        9.1522792461        8.2798789659
  H        -3.5382034772       14.8961177678       16.2438835341
  C        -2.9481110578       13.9676605376       16.2849216989
  H        -3.7413192842       13.2262437889       16.6042981295
  C        -1.8955257414       14.0965112874       17.3623801745
  C        -2.4429208627       13.7775205933       14.8338284859
  C        -2.4712816694       13.9297812896       18.7384550168
  H        -1.0624713017       13.4225934766       17.0034205440
  H        -1.4521122172       15.1172879128       17.3307493704
  H        -2.0226394001       12.7065359204       14.7727989303
  H        -3.1818271633       13.9249561562       14.0902162372
  H        -1.7119433031       14.6196192019       14.8413071337
  C        -1.4988981241       14.1626359828       19.8860872871
  H        -2.9123528790       12.9048060143       18.8471648267
  H        -3.3201331013       14.6188527765       18.8108208292
  C        -2.1102394156       13.8870156814       21.2677726464
  H        -0.7332818982       13.3947746803       19.8318280944
  H        -1.0590624571       15.1541177149       19.6880537272
  C        -1.1423697961       13.0583728791       22.1027196601
  H        -3.0162522968       13.3519658537       21.2259636849
  H        -2.1947360060       14.8009541314       21.8659469190
  C         0.0627689511       13.9549317684       22.5916901084
  H        -1.7197014810       12.7228476325       22.9346678589
  H        -0.7594992504       12.2025418766       21.5081149410
  C         1.1947026230       13.2672290284       23.3751710980
  H         0.6016689255       14.3956339193       21.6991304910
  H        -0.3640230867       14.7389221460       23.1999216737
  C         1.6637935994       11.9996852303       22.6975593050
  C         0.7510770886       12.5615967923       24.5962818246
  C         2.4929814649       14.1779148986       23.6487294610
  C         1.2676428580       10.8838216374       23.4179689756
  C         2.1781163195       11.6178769846       21.4805634086
  C         0.7658956980       11.2238767558       24.6517659032
  C         0.3590225279       13.2266286547       25.7894203548
  H         2.7497332250       14.8963220604       22.8395334532
  H         2.2573142782       14.7870852025       24.5111475552
  C         3.8404059305       13.4656187952       23.9707951488
  S         1.5481660719        9.3704153117       22.5536869468
  C         2.2068202452       10.2668302754       21.2577618828
  H         2.3325480500       12.3584063444       20.6676943045
  C         0.4605389006       10.5852065939       25.7886206941
  H         0.4136904719       14.3443976890       25.8390279785
  C        -0.0349160210       12.5495668180       26.8975828849
  H         3.9987745228       12.8141786495       23.1173979470
  H         3.7281227078       12.9742841336       24.9224628089
  C         4.9543590597       14.4799559735       24.1239825482
  C         2.6003149211        9.6384654133       19.9505941363
  C        -0.0519084524       11.2449903141       26.9391734243
  H         0.5565540708        9.5263154441       25.8627535177
  C        -0.4547436412       12.8805066710       28.1486743286
  H         5.7362853098       14.1419299765       24.7892739796
  H         4.4913812809       15.3367562968       24.6380883641
  C         5.6951708044       14.9178255493       22.7926076496
  C         2.6543546087        8.2412129877       19.7784228190
  C         3.0486465140       10.4988022766       18.7988522817
  C        -0.4428341529       10.4667897430       28.1414218688
  C        -0.6383757078       11.7490978456       28.9234624924
  S        -0.6211449516       14.3424780500       29.0819103252
  H         6.3464229041       15.7236198142       22.9573665717
  H         4.9876356614       15.0653465079       21.9609652131
  C         6.5965146732       13.8159263149       22.2627414953
  N         2.4037728731        7.2837895717       20.7273863191
  C         2.9106261557        7.6710461825       18.5755477043
  C         3.2271253670        9.8398022801       17.5642302776
  H         3.0674671169       11.5603918900       18.8175846360
  C         0.6409230913        9.6103508171       28.7066324291
  C        -1.8159968562        9.6320382220       28.0191071536
  C        -1.0629011204       12.0569991807       30.2410320727
  C        -1.1714508292       13.4163091712       30.4928306186
  H         7.2229231962       13.5858310308       23.0948791803
  H         5.9652418841       12.9174743955       21.9639871307
  C         7.4054670277       14.1861143763       21.0359000813
  S         2.3208810750        5.8006237027       20.0448173360
  N         2.8169382351        6.2300102153       18.5917193059
  C         3.1916415323        8.3897063490       17.4139976809
  H         3.3215663411       10.4556208797       16.7172588243
  H         1.1720946361        9.0711068418       27.9430241521
  H         0.3180755170        8.7256159423       29.2975475246
  C         1.6867277812       10.3351768088       29.3917933055
  H        -1.6530627046        8.9013302464       27.2193405560
  H        -2.0370663970        8.9887167020       28.9242652207
  C        -3.0293825776       10.4990773402       27.7299068757
  H        -1.3032618103       11.2354270015       30.9302713666
  C        -1.4660872063       14.1493504114       31.7663234180
  H         8.2065462144       13.5270628102       20.8522203786
  H         7.9222567213       15.1662117510       21.2448770801
  C         6.4688543914       14.0724992780       19.8080239526
  C         3.3334573661        7.6921203261       16.1359260524
  H         2.0003503332       11.0906235970       28.6652489822
  H         1.4061150540       10.8961007588       30.2827965374
  C         2.7596522299        9.3832399147       29.8352260184
  H        -2.8835756738       11.1045996631       26.8654167703
  H        -3.2611763814       11.1348692068       28.6074328438
  C        -4.2953192004        9.6438377159       27.4220098120
  C        -1.6210181515       15.5280816348       31.9822583393
  C        -1.6472889446       13.3168684202       32.9636478118
  H         6.1363182525       13.0038578955       19.8114667115
  H         5.6740393438       14.7619270941       19.6829694256
  C         7.3674567784       14.1603381952       18.5990631945
  H         3.0878436690        6.6453462561       16.1629345756
  C         3.5525377479        8.1688412284       14.7994575633
  H         3.2543642276        9.1161322987       28.9330583855
  H         2.4184434006        8.4368554639       30.2930885255
  C         3.7742059665       10.2207085532       30.7163608964
  H        -4.0420524904        9.1825545819       26.5037871621
  H        -4.5626495898        8.7650906845       28.0142448125
  C        -5.5572909477       10.4861768802       27.1807761329
  N        -1.5305710803       16.5332905124       30.9949087417
  C        -2.0246305889       16.0473167477       33.2058465376
  C        -2.1167151433       13.8552008160       34.1860671196
  H        -1.5839333385       12.2442987327       32.7955281240
  H         7.0594348992       14.9825941888       17.9050094466
  H         8.3742575235       14.4600405441       18.8443722537
  H         7.3857268199       13.3131505715       17.9628382220
  S         4.0789852061        9.7575190664       14.3515504784
  C         3.6881577065        7.1829578044       13.7489874545
  H         3.9219849078       11.1172543775       30.0846662034
  H         3.4040314887       10.5394439962       31.7026627665
  C         5.0625599142        9.5308052636       30.8513229481
  H        -5.1392686352       11.1941464856       26.4059999150
  H        -5.9054599728       11.1333169977       28.0111449563
  C        -6.7570261920        9.7184749398       26.4794662756
  S        -1.8155463863       17.9626556792       31.7226035265
  N        -2.1616723581       17.4548037187       33.2195141879
  C        -2.2924550344       15.3365219722       34.3762045452
  H        -2.3220542300       13.1972590693       35.0427006450
  C         4.1863213242        9.1488152995       12.7223247063
  N         4.1809495359        7.7964295429       12.6611571203
  O         3.4263559866        5.9905403056       13.9499880951
  H         5.6811179003       10.1074208165       31.4898995036
  H         5.5760198190        9.3933532865       29.9393475422
  C         4.9375656453        8.1286463374       31.4350027500
  H        -6.2584725308        9.0636355049       25.7763589101
  H        -7.3550846491        9.0596549522       27.1203417716
  C        -7.5586892614       10.6364530210       25.4834425774
  C        -2.8015982948       16.0308870126       35.5145983538
  S         4.9238611871        9.9387666664       11.3458292935
  C         4.4475673064        7.0621735515       11.4389513304
  H         4.5184082972        8.1580888870       32.4536228776
  H         4.4028627288        7.5328069231       30.7121115636
  C         6.3435994615        7.5929398008       31.5643946316
  H        -6.9304997424       11.1268381171       24.7752917476
  H        -8.1984674925       11.3435527001       25.9651803255
  C        -8.6621084799        9.8841112650       24.6889482781
  H        -2.6887372717       17.0957622394       35.5814256070
  C        -3.2281049696       15.5567476988       36.7236001854
  H         5.3634577439        7.3171767684       10.9231048406
  H         4.4847160432        6.0041988253       11.7956410076
  C         3.2220863991        7.1174763757       10.4894274788
  H         6.6070047446        7.9467108759       32.5384166124
  H         7.0748883927        7.9472387122       30.7840232930
  C         6.3600929184        6.0579795238       31.6185645685
  H        -8.8258764484       10.4449782827       23.7653083747
  H        -8.2055862343        8.9080877847       24.5827442862
  C        -9.9195670437        9.5738535386       25.4546937335
  S        -3.6917277265       13.9480620331       37.0875279922
  C        -3.4712670370       16.6003539001       37.7369589937
  H         2.2388943409        6.9820281226       10.9957774269
  H         3.2315973372        8.0045151086        9.9121869240
  H         3.3589028508        6.3207561707        9.8323993780
  H         7.3275695088        5.5950220913       31.7391459365
  H         5.9727657506        5.6748073880       30.5946415821
  H         5.6324166631        5.7133049971       32.4323402643
  H        -9.6491160000        8.9551218695       26.3319164412
  H       -10.6825856651        8.9929654118       24.8735682349
  H       -10.3425928348       10.4689852601       25.9135339341
  C        -4.2288122053       14.6055405025       38.6800534514
  N        -4.0080027107       15.9431740537       38.7582111991
  O        -2.9930765271       17.7386018652       37.7108538044
  S        -4.9610761315       13.7355686285       40.0540962313
  C        -4.0443975240       16.7047335667       39.9949414787
  H        -4.4988627458       17.6809354982       39.7777161977
  H        -4.6996661869       16.3858458573       40.7648103424
  C        -2.7614805545       16.9814935195       40.6585761196
  H        -2.3728475456       15.9877082347       40.8751446364
  H        -1.9951861763       17.5242014366       40.1014011645
  H        -2.8892037196       17.4498847891       41.5891508967
