352
 i =    52400, time =    52400.000, E =        24.5912005051
  H        12.5462370100        6.6747207106       32.3620492650
  C        11.6101594530        6.1803886608       32.3810609589
  H        11.9988671039        5.1499718062       32.2632020505
  C        10.8153907303        6.7520786742       31.2362989815
  C        10.7469933314        6.0957488480       33.6211462605
  C        11.3977587894        6.0526530476       29.9935872711
  H         9.7364584261        6.5640672040       31.3747303560
  H        10.8098484686        7.8535354759       31.1346250744
  H         9.8105808150        5.7045642905       33.2513855559
  H        11.1655375036        5.4251094346       34.3852160934
  H        10.4670967686        7.0595395008       34.0615060735
  C        10.5151931283        6.2030557763       28.7589379713
  H        11.5909563789        5.0443842271       30.1855502097
  H        12.3835241639        6.4592248235       29.7910377585
  C        11.2022243716        5.7083181990       27.5483973988
  H         9.6015333797        5.6484281295       28.9871413902
  H        10.3493380362        7.1831906829       28.5632998124
  C        10.1225059170        5.1366814019       26.5984072073
  H        11.9073639679        4.8344467013       27.7386805178
  H        11.7658358460        6.4875863711       26.9738960430
  C         8.9946704955        6.0839393657       25.9615948303
  H        10.5581323611        4.6467400870       25.7157708368
  H         9.6253771798        4.3452261095       27.0339121570
  C         7.8069046689        5.3854685422       25.3453925382
  H         8.5114218523        6.6419960840       26.7701710997
  H         9.6092449600        6.7509061328       25.3383303381
  C         7.4405315025        4.0595182147       26.0561185493
  C         8.2364625642        4.6356289442       24.1642536929
  C         6.5571093246        6.2228478154       25.1323989052
  C         7.7311371063        2.9512732779       25.2308074232
  C         6.8553294178        3.7048920108       27.2635943251
  C         8.1947649436        3.2992732467       24.0112981899
  C         8.6145541923        5.2519781872       23.0031708792
  H         6.8541260933        6.9987029579       24.5059692499
  H         6.3566481805        6.7603517005       26.0004081818
  C         5.3509165165        5.4596780543       24.4301158360
  S         7.2078359688        1.5530996522       26.0030389862
  C         6.6938280906        2.3840092048       27.4528713577
  H         6.5585528587        4.5564666235       27.8940380214
  C         8.4611970906        2.6872464866       22.7974389939
  H         8.7353913778        6.3628585647       23.0446147038
  C         8.9444100769        4.5898980567       21.7879602162
  H         5.5092800975        5.0973143495       23.4420365195
  H         5.2038850050        4.5894866166       25.1515588945
  C         4.0681648320        6.3019619529       24.3851730082
  C         6.2579185012        1.6809845795       28.6899040316
  C         8.8667071125        3.2797914172       21.6566993736
  H         8.4417290313        1.5836142440       22.7133001937
  C         9.2747144340        4.9699176070       20.5393969469
  H         3.3361142151        5.9508976826       23.6419150381
  H         4.3678294733        7.3325422914       24.0591722086
  C         3.3572452679        6.3468636529       25.7731331538
  C         6.1572229131        0.2796169137       28.8512183111
  C         5.7971342691        2.5457837424       29.8359280488
  C         9.0895037752        2.4915865334       20.3652077073
  C         9.4098921728        3.8950521163       19.6566468437
  S         9.4688172343        6.5544507150       19.7528345353
  H         2.6137287205        7.2223403733       25.7402722727
  H         3.9820973497        6.7025864376       26.5541381265
  C         2.7581036115        4.9825241475       26.2840578704
  N         6.4333690224       -0.6837704614       27.8848764147
  C         5.7887560344       -0.2608935718       30.0767601007
  C         5.3155753615        1.9516693024       30.9817759121
  H         5.7130680117        3.6115168533       29.8473989306
  C         7.7757737059        1.8298850477       19.8382316190
  C        10.3530912509        1.4825619660       20.3615268523
  C         9.8544995601        4.3491957024       18.3900637374
  C         9.8020100617        5.7598872159       18.2804456660
  H         2.3301909378        4.5031416972       25.4680668008
  H         3.5731928070        4.2280111193       26.5928268353
  C         1.7614674536        5.2023681649       27.4441195047
  S         6.3630181431       -2.1294933055       28.6185532292
  N         5.9858363906       -1.6612599060       30.1218846191
  C         5.5052392516        0.5205693780       31.2530787600
  H         4.8760213110        2.5806190956       31.7531173467
  H         7.4366096155        1.2647132840       20.6596840099
  H         7.9867589001        0.9348576420       19.1929134896
  C         6.5032232547        2.7158497980       19.5808086645
  H        10.4715421389        0.7663441676       19.5558981798
  H        10.2613443726        0.8895431895       21.3011577511
  C        11.6541725746        2.2508108162       20.4309604601
  H        10.1728559982        3.5768930938       17.5843423317
  C        10.1288558047        6.4502425231       17.0497595051
  H         1.1482934080        4.3255215067       27.5480760828
  H         1.0987632883        6.0607682088       27.2476763100
  C         2.5202424558        5.5774070531       28.6470795887
  C         5.1676807116       -0.1655247291       32.4668859635
  H         6.6990030334        3.4716292839       18.8342887459
  H         6.2599425560        3.3064841885       20.4745232519
  C         5.2293801848        1.9153974552       19.2768907376
  H        11.5238498185        3.1225572348       21.1864236986
  H        11.8048746305        2.6698182288       19.4443190706
  C        12.8425064540        1.4642170966       20.8717177451
  C        10.1223566002        7.8023185394       16.8226546703
  C        10.4885951381        5.6922753865       15.8634269926
  H         3.2278611206        4.8956270595       29.0039570853
  H         3.1834621982        6.3773837397       28.3306705752
  C         1.6877753365        6.0627574451       29.8307973199
  H         5.4240322012       -1.1921357160       32.5906862930
  C         4.7330265064        0.2996792971       33.6855124936
  H         4.9089155989        1.6571999214       20.3302874213
  H         5.5140059853        1.0233255937       18.7414932261
  C         4.3074771600        2.7069537454       18.3377032182
  H        12.6562327802        1.0433412438       21.8333757186
  H        12.9229295502        0.6397501321       20.1933885261
  C        14.1501550961        2.2770911251       20.7294716923
  N         9.7738746105        8.8030905767       17.7637311928
  C        10.3366945750        8.3727695831       15.6312576742
  C        10.6231464564        6.2325266693       14.6331292008
  H        10.5256529059        4.5993874677       15.8227752672
  H         2.0377281556        5.6306850572       30.7501803119
  H         1.7246729887        7.1150363878       29.8421282299
  H         0.5992021516        5.8457550708       29.6632757702
  S         4.3910226460        1.9257647085       34.1876124887
  C         4.5302888793       -0.6822052224       34.7950597857
  H         4.1835914091        3.6922080520       18.8580524008
  H         4.7498708330        2.7633533372       17.3510977344
  C         2.9393003686        2.0535110096       18.2852812509
  H        14.1525726106        2.9123531963       19.8800343017
  H        14.9685121256        1.6225224634       20.5357741029
  C        14.6385571314        2.9775981846       22.0062037627
  S         9.7578426914       10.2328525425       17.0639098492
  N        10.1274667164        9.7399358012       15.5490723668
  C        10.5946085032        7.6987068447       14.4289489835
  H        10.9402189889        5.4742532054       13.8991666225
  C         4.0547050981        1.2990192551       35.7867772224
  N         4.1101609511       -0.0101777169       35.9397141438
  O         4.7809539596       -1.9176873253       34.6747758809
  H         2.1964361193        2.7579684851       17.9469006929
  H         2.6735791783        1.9375318319       19.3552068403
  C         2.7265057213        0.7696958198       17.4573416782
  H        15.3880554296        3.7363007024       21.6764381278
  H        13.7848151062        3.5465420931       22.3817400898
  C        15.1143956074        2.0526772640       23.1279442346
  C        10.8590957403        8.4153177915       13.2270051650
  S         3.8050340918        2.2813109940       37.2649468745
  C         4.2091877887       -0.7347491270       37.1617352594
  H         2.0482858805        1.0623218469       16.6646711714
  H         3.6317683905        0.5879961529       16.9566031148
  C         2.4280590129       -0.4667088257       18.1920392224
  H        15.0806556112        1.0720208563       22.6642964868
  H        14.4013693930        2.1197023766       23.9990919698
  C        16.5291451315        2.5336947283       23.5665063816
  H        10.5471694784        9.4024455403       13.2240119044
  C        11.2478734376        7.9368170140       11.9557854065
  H         3.5750796674       -0.2812743302       37.9516054975
  H         3.7195218708       -1.7038320778       37.0599630312
  C         5.6692808792       -0.8058977004       37.6902053441
  H         1.5320738750       -0.4262104396       18.7344733732
  H         3.2270884494       -0.6080990418       18.9308971694
  C         2.4167279008       -1.6496972195       17.2113251697
  H        16.4174680785        3.6076933663       23.7519291841
  H        16.6299840645        2.0947262230       24.5715189615
  C        17.7752709810        2.2763061471       22.6772179614
  S        11.6941002789        6.3017856894       11.4562161739
  C        11.2428543642        8.9195458150       10.8708949561
  H         6.1389209293        0.2399107291       37.8312240673
  H         5.7163414248       -1.3798962928       38.7396230749
  H         6.3473500195       -1.3321984639       37.0936560836
  H         2.2163640295       -1.1911280299       16.2466388850
  H         1.7399155935       -2.4547576970       17.5073604422
  H         3.4686473491       -1.9117323803       17.1223496724
  H        17.8024356876        2.6908915876       21.6902634036
  H        18.0507999118        1.2833618242       22.6392309276
  H        18.6425144745        2.6863303395       23.2263316189
  C        11.9668642798        7.0560048008        9.8636169390
  N        11.7373195659        8.3859810224        9.7595716662
  O        10.8312062303       10.0602677641       11.0921544637
  S        12.7863606108        6.2664516333        8.5150744900
  C        11.9532474396        9.2822162252        8.5984618298
  H        12.4238295027       10.1449036343        9.0848099190
  H        12.6487306448        8.9043360058        7.9002959819
  C        10.6729836134        9.5934382845        7.8374283658
  H         9.7536551922        9.5571558457        8.3756772766
  H        10.7350980651       10.5593463347        7.2454484443
  H        10.5296360529        8.7661487196        7.1286817041
  H        -2.1497737148       12.5381238873       17.4082166978
  C        -2.0259558003       13.4458552764       16.8806491394
  H        -1.1217547948       13.6215380122       16.2676703317
  C        -2.2740241462       14.5821091512       17.8319421003
  C        -3.1891738677       13.4557171789       15.9242213424
  C        -2.8393714250       14.0435526440       19.1913221486
  H        -1.3389625639       15.0963209004       18.0358607608
  H        -2.8684394861       15.3443013306       17.3754159213
  H        -3.4313967831       14.4153624424       15.4697160203
  H        -2.8636671190       12.9046369901       15.0770688015
  H        -4.0007857582       13.1443889163       16.5367290501
  C        -1.7740746890       13.4082543928       20.0489345389
  H        -3.6289640539       13.3004040959       19.1226314289
  H        -3.2939590087       14.8885299406       19.8279458841
  C        -2.2236917222       13.4446170996       21.5015233675
  H        -1.6493086925       12.3890296571       19.7043705653
  H        -0.8628450376       13.8887945737       19.9677007911
  C        -1.1998171027       12.9521866061       22.4691138288
  H        -3.1600338248       12.9063093442       21.7159686324
  H        -2.4746570190       14.5088529731       21.6786545869
  C        -0.0529646577       13.9918927986       22.6390350933
  H        -1.7412229991       12.7250762879       23.3845586106
  H        -0.8394283132       12.0123125769       22.0932718984
  C         1.1732039608       13.4838634720       23.4037903090
  H         0.0754383656       14.5358267740       21.7520648516
  H        -0.4768385146       14.8037533184       23.2799105575
  C         1.5619120397       12.1753039810       22.6675556777
  C         0.7646502525       12.6957586445       24.6851128450
  C         2.3217954265       14.4866073756       23.4650348866
  C         1.3102524994       11.0929258158       23.4488258481
  C         2.0262352763       11.8883547660       21.3688640322
  C         0.7736599193       11.3744153855       24.7282623235
  C         0.3039640204       13.4059268824       25.8085117693
  H         2.5823452544       14.8610627766       22.4489571629
  H         2.0812742584       15.3640921712       24.0266128133
  C         3.5606741116       13.7344808266       24.0700188402
  S         1.8057443260        9.6480719151       22.7173287370
  C         2.3291241183       10.5414647328       21.2670428695
  H         2.0765244950       12.6719606540       20.6526724106
  C         0.3752989600       10.7386627889       25.8744507979
  H         0.2892833242       14.5163215786       25.7894366630
  C        -0.0643240878       12.7597775491       26.9018945241
  H         3.8372928779       12.9697539856       23.4041268404
  H         3.4093658981       13.2652971872       24.9812168972
  C         4.8738293188       14.5652593603       24.3072544690
  C         2.7001149069        9.7823603567       19.9994040420
  C        -0.0812146448       11.4159507831       27.0031271311
  H         0.3061236145        9.6679710159       25.8791674060
  C        -0.4639956543       13.1126724948       28.1566408684
  H         5.4943952776       13.8142203970       24.8086077746
  H         4.7007513191       15.4278884572       24.9006396188
  C         5.5664487915       14.9149472799       23.0026092877
  C         2.7315361564        8.4029282379       19.7919166841
  C         3.0103569454       10.6305562140       18.8344175648
  C        -0.5248335038       10.6690684922       28.2480920735
  C        -0.8182813727       12.0427977641       28.9636678605
  S        -0.7171510023       14.6620639700       28.8955719571
  H         6.3267686555       15.7184507145       23.3041985056
  H         4.8172687122       15.3458798332       22.3625617958
  C         6.3376289157       13.6786454848       22.4329756019
  N         2.3653208026        7.5444284419       20.7699602484
  C         2.9615357679        7.8022531726       18.5478999694
  C         3.3375173483       10.0261372207       17.6107502747
  H         3.0121811558       11.7172707322       18.9623203307
  C         0.6877568633        9.9251108320       28.7757652168
  C        -1.7321671777        9.7218432122       28.0782486615
  C        -1.3014196798       12.3989670303       30.2357040433
  C        -1.3374251624       13.8132910209       30.3356432775
  H         6.7945964842       13.1124118624       23.2601357725
  H         5.6161648058       13.0632082159       22.0993148772
  C         7.3360465493       14.0506928921       21.3538461987
  S         2.4244704776        6.0796905803       20.0641419371
  N         2.8190120587        6.4212440908       18.5156653968
  C         3.2272691207        8.5287811859       17.3830749803
  H         3.5736542009       10.6367552550       16.8253841199
  H         0.8513174100        9.0254849908       28.1757085324
  H         0.3924809677        9.5493114727       29.7865273652
  C         2.0047353167       10.8132343262       28.8997627799
  H        -1.4792463382        8.9278099642       27.4159933261
  H        -1.9249448180        9.2113195802       29.0563142900
  C        -3.0400614577       10.4450909284       27.6644597667
  H        -1.6956407475       11.6998297475       30.9366028994
  C        -1.6814196356       14.5451415172       31.5881378218
  H         8.3782768829       13.8953758288       21.6296942489
  H         7.1881232588       15.1254042541       21.1220571204
  C         6.9842837156       13.3599678667       20.0271478871
  C         3.4601328450        7.8487068050       16.1441394033
  H         2.3933672286       10.9316718796       27.8861096667
  H         1.7620945183       11.7158054113       29.5364342559
  C         2.9796090550       10.0931699887       29.6954290089
  H        -2.7154702716       10.9237655526       26.7359951003
  H        -3.3983386830       11.2231671040       28.3779569005
  C        -4.1711018898        9.5332469534       27.1656088197
  C        -1.8063573263       15.9517148019       31.7408039310
  C        -1.9229412230       13.7633132777       32.8428088176
  H         7.6882257791       13.5634985799       19.1854602518
  H         6.9796328107       12.2605751835       20.1527754603
  C         5.5686454654       13.6716007042       19.4574525461
  H         3.3520475617        6.8574149737       16.2685796708
  C         3.6615356263        8.2485791482       14.8669506825
  H         3.2772208506        9.1627973055       29.2132721830
  H         2.4926735624        9.7428814903       30.6194508460
  C         4.1670784450       10.9228858785       30.1649092696
  H        -3.8046359313        9.1871429348       26.2420108119
  H        -4.2010875820        8.5468323977       27.6854568253
  C        -5.5255758292       10.2909882120       27.1087628529
  N        -1.5272665959       16.9234766483       30.7148115110
  C        -2.1895680459       16.5395804759       32.9347443074
  C        -2.2838898773       14.3880377363       34.0272884374
  H        -1.8694951039       12.6776713911       32.8585912560
  H         4.8436787086       13.8622997221       20.2655404876
  H         5.6095673170       14.5844681051       18.8282936468
  H         5.0987635957       12.9567296650       18.8607193279
  S         3.8345194910        9.8715985841       14.1986362607
  C         3.7812175919        7.2051061835       13.8790823269
  H         4.1067376434       11.7761711347       29.5275661955
  H         4.0675765470       11.1876746688       31.1972772939
  C         5.4674589898       10.2359170401       30.0034020966
  H        -5.5030727175       11.2829366468       27.4909695427
  H        -6.1151727131        9.8419799741       27.8713930324
  C        -6.2147260368       10.2208831513       25.6596872999
  S        -1.6961851501       18.4515531609       31.4073905871
  N        -2.2015541235       17.9032259056       32.8839348280
  C        -2.3882128327       15.8442333792       34.0591382775
  H        -2.2636494966       13.8765035163       34.9484068350
  C         3.9401024870        9.0740389125       12.6090818381
  N         3.9366643423        7.7208234596       12.6635638776
  O         3.6694032713        6.0175488000       14.1703964241
  H         6.2730080060       11.0128489267       30.1721527614
  H         5.4638244628        9.7433976545       29.0012263626
  C         5.6991151397        9.1965413332       31.0904542616
  H        -5.6856409423       10.8838809761       25.0064817648
  H        -6.1652315318        9.2592694973       25.2433114797
  C        -7.6906764728       10.6776726560       25.7093528845
  C        -2.6832655702       16.5857319405       35.2386611423
  S         4.3055569355        9.7886407250       11.0821468869
  C         3.9424498514        6.8742488029       11.4489457253
  H         6.1197524866        9.7021515016       32.0137808241
  H         4.7489576024        8.9369265824       31.4140260675
  C         6.4997001272        7.9706178529       30.6409513649
  H        -7.9026031296       11.0574683338       24.6670830473
  H        -7.8248582102       11.5628266255       26.3088081107
  C        -8.6838624855        9.5792112611       26.0740102826
  H        -2.2822525806       17.5944954674       35.2073558125
  C        -3.0851581927       16.3092789970       36.5489027339
  H         4.7131548972        7.2210687628       10.7180216707
  H         4.2014662221        5.8018240557       11.6255413092
  C         2.5403208779        6.9987444096       10.7545084114
  H         7.4798563146        8.2701714169       30.2374052109
  H         6.0869566042        7.6386347224       29.6901299756
  C         6.6267504407        6.7805036738       31.6625215486
  H        -8.7881540309        8.8055725183       25.2334784351
  H        -8.4295143582        9.0061674775       26.9657965752
  C        -9.9744831726       10.3921176049       26.2870191915
  S        -3.5003702915       14.7907250945       37.1612747818
  C        -3.1056321812       17.4498330654       37.5513090340
  H         2.5065607051        7.9814204779       10.3164245121
  H         2.4944116940        6.2449890708        9.9335075867
  H         1.7575181286        6.8275687796       11.4452780106
  H         7.1674021271        7.0726189254       32.5290973701
  H         7.1343155228        5.9433824040       31.3221702459
  H         5.6664095949        6.4126111786       31.9951403152
  H       -10.7789801316        9.8059989466       26.7129306269
  H       -10.3759305948       10.8028852029       25.3492413712
  H        -9.8425848265       11.3327485039       26.9175218766
  C        -3.8127658621       15.6577708171       38.6728048120
  N        -3.5699483639       16.9662715374       38.6877872791
  O        -2.7397804488       18.5796681724       37.4208530891
  S        -4.3438186468       14.8893307853       40.1947983450
  C        -3.6344815763       17.7568355705       39.9064118211
  H        -3.8878588111       18.8080208327       39.6768465498
  H        -4.4310524272       17.5094694083       40.5728414255
  C        -2.2815487040       17.6123355538       40.6360981520
  H        -1.4371717223       17.6942611290       39.9292647693
  H        -2.1467520641       18.4314089813       41.4376483848
  H        -2.2040441467       16.5748355016       41.0544479539
