352
 i =    87700, time =    87700.000, E =        25.5266174361
  H         9.7362264716        6.5356180053       31.3349439927
  C        10.6489500464        6.7521632493       31.8241603233
  H        10.7640302359        7.7557497404       32.1708725188
  C        11.5368206395        6.4588047249       30.6614425284
  C        10.8614643713        5.7793976749       33.0050654213
  C        11.0821183798        5.3407733129       29.8103741486
  H        11.5195176697        7.3518849207       30.0127618299
  H        12.6022454168        6.4858894829       30.9241696118
  H        10.5192089960        4.7812549794       32.8270757307
  H        11.9721957324        5.7182186505       33.2608167769
  H        10.3379510420        6.2815297375       33.8377825433
  C        10.1144296425        5.7557530224       28.6233686528
  H        10.5486700127        4.6988850388       30.4382393751
  H        11.9942612665        4.8766993623       29.4427447232
  C        10.7507253702        5.5634670180       27.1866996490
  H         9.2389886666        5.0821053736       28.7713181178
  H         9.8496572210        6.7317346285       28.7306489219
  C         9.7524274782        4.8023724369       26.2757777566
  H        11.6983775426        4.9313880082       27.2465568243
  H        11.0429715588        6.5299668215       26.7810931284
  C         8.4672839272        5.5942371418       25.9320802551
  H        10.2556848559        4.4772964313       25.4065231075
  H         9.4325020307        3.8004481720       26.5736025980
  C         7.2790211328        4.6957015023       25.4327530471
  H         8.1895945129        6.1623884348       26.8476339367
  H         8.5814484183        6.3399181324       25.0921017292
  C         6.9973222171        3.4027412879       26.1575864972
  C         7.6607432677        3.9558634569       24.1265520547
  C         6.0450459000        5.6336704218       25.1387738228
  C         7.0751011142        2.3092801470       25.3155074712
  C         6.7717462762        2.9832728647       27.4892083473
  C         7.5153499953        2.6450157271       24.0320190464
  C         8.2377148471        4.5516566776       23.0687152306
  H         5.4505608998        5.0185614940       24.4995927440
  H         6.4145234979        6.4480700658       24.7073563984
  C         5.2877487796        5.9482284583       26.4320421263
  S         6.6568117693        0.7934623903       26.1192036827
  C         6.5004212128        1.6404812783       27.5932740429
  H         6.8073259504        3.6900760416       28.2785793558
  C         7.8361718577        2.0016804206       22.9015505575
  H         8.3635969855        5.6054796227       23.2197295012
  C         8.4624744829        3.9823538952       21.8296777991
  H         5.7667469270        5.5736760622       27.3629675056
  H         5.3221724234        6.9621457780       26.6879549368
  C         3.8385947356        5.4567092416       26.2460161071
  C         6.2024372898        0.9614246825       28.8768243113
  C         8.2523496237        2.6822997432       21.7492172736
  H         7.8962974409        0.9619360004       22.8561525318
  C         8.8106122694        4.4510504358       20.6066082494
  H         3.8135986561        4.4342004045       26.0188257319
  H         3.4348270969        5.9533547260       25.3906821937
  C         2.8313611476        5.7036254545       27.4131136852
  C         6.0880926857       -0.3974965297       29.2156248229
  C         5.8140462804        1.8511958215       30.0222096276
  C         8.7648537547        2.0330210862       20.4735722451
  C         9.1007853965        3.3483074306       19.7657188058
  S         9.2346124943        5.9858318410       19.9264290764
  H         2.0237478849        6.3560131252       26.9954010906
  H         3.3639675139        6.3847575907       28.0317700940
  C         2.2643342264        4.5460124445       28.1028757189
  N         6.2602034282       -1.4817254425       28.3234339034
  C         5.7831908820       -0.8890620933       30.4987451942
  C         5.4916674196        1.3823774213       31.2929113199
  H         5.7465312063        2.8712862386       29.8411377937
  C         7.5195937692        1.1456800083       19.9094403030
  C        10.0719058896        1.2118059119       20.6780667471
  C         9.6456001308        3.7864937208       18.5407992800
  C         9.8179087625        5.1680897582       18.4844786838
  H         1.9900517478        3.7926612861       27.3713193328
  H         3.0886649760        4.0452152559       28.7786776130
  C         1.0293725724        4.8172355889       29.0137750831
  S         6.2316076431       -2.8846748093       29.1289074652
  N         5.8934032207       -2.2288498867       30.6113083933
  C         5.4117467340       -0.0558523117       31.5819054472
  H         5.1132041865        2.1227552587       31.9916664234
  H         7.2819026221        0.4377184643       20.6440211193
  H         7.7860695759        0.6059653835       19.0090172759
  C         6.2894589722        2.0666096713       19.6127655581
  H        10.4418336174        0.8132237309       19.7119746651
  H         9.9489125299        0.2944802906       21.3072655574
  C        11.1930322309        2.0616335721       21.3043794668
  H         9.8922446463        3.0277383418       17.8463540145
  C        10.1651934330        5.9935312763       17.2720952923
  H         0.5924411276        3.8637349070       29.3554156691
  H         0.3335854111        5.3261697801       28.3173201775
  C         1.2588303272        5.7240915579       30.2623189239
  C         5.1394673959       -0.6189030294       32.8578658381
  H         6.6581398635        2.7433866138       18.8769015655
  H         5.9050938139        2.7109017132       20.4006902962
  C         5.1662813358        1.2595785638       18.9196763866
  H        10.8688274498        2.4431936292       22.2641523968
  H        11.3323644612        3.0311390621       20.8025371706
  C        12.5261440188        1.3679346234       21.5248489308
  C        10.1340667953        7.4981448587       17.1388890258
  C        10.2853544096        5.2727652409       15.9462367725
  H         1.8032358118        6.6103201621       29.8932658450
  H         0.3334448969        6.1327362662       30.5970708099
  C         1.9479889155        5.0639530048       31.4246706635
  H         5.1750210899       -1.6703709217       32.8732175606
  C         4.7412214775       -0.1093816659       34.1195984782
  H         4.9787003065        0.4407417283       19.5896894226
  H         5.4292431012        0.8611104507       17.9921911508
  C         3.8024010253        2.0410457528       18.7821951644
  H        12.3851746236        0.7782283598       22.4130208386
  H        12.8537126936        0.6961966024       20.6739703643
  C        13.6167742027        2.3174807979       21.8115611341
  N         9.7740632043        8.3895754522       18.0845520672
  C        10.3472343281        8.1258636805       15.9044624738
  C        10.5090520546        5.9922267764       14.7739469435
  H        10.2430276159        4.2101983478       15.9925335681
  H         2.7244788957        5.6985219122       31.8529675845
  H         1.2477707841        4.8730384843       32.1871197446
  H         2.3265356623        4.0968860958       31.0969486139
  S         4.3325038391        1.5571206135       34.4913046737
  C         4.6887459832       -1.0403344835       35.1873860339
  H         3.9967902737        2.8244971868       19.5131568842
  H         3.7719344849        2.6157708260       17.8396316054
  C         2.5829722462        1.1127791368       18.9680835853
  H        13.2310812711        3.1611795003       22.3391342536
  H        14.0571515693        2.8109360015       20.9099489279
  C        14.7888320939        1.6249582055       22.5863433580
  S         9.8668267820        9.9453870976       17.4486179168
  N        10.3451559615        9.5240552703       15.9961693913
  C        10.6254827520        7.4295163215       14.6859580046
  H        10.7516805679        5.2998579696       13.9495475279
  C         4.3204797810        1.0141762810       36.1436139539
  N         4.4729222722       -0.3200059921       36.3403107437
  O         4.9626984631       -2.2196891735       35.1194102616
  H         1.6965103676        1.7295100188       19.1288770444
  H         2.7636106656        0.5852141119       19.8985588731
  C         2.3144873835        0.1546680171       17.8543883042
  H        14.2717709664        1.3381080932       23.5716438484
  H        15.2251445109        0.7204671526       22.1411874197
  C        15.9395332117        2.6778004721       22.6142559088
  C        10.7459616161        8.1907298018       13.4813802391
  S         3.9245618611        2.0103197202       37.5861195141
  C         4.6236167239       -0.9565609331       37.6829608945
  H         1.2590459035       -0.0264221189       17.8011420290
  H         2.6166241019        0.5866161311       16.9092803150
  C         2.8201840031       -1.2863303980       18.0268391219
  H        15.5588353945        3.7062839274       22.9059166795
  H        16.4060108578        2.8566568291       21.6412415093
  C        17.0372367787        2.1841037110       23.5993979262
  H        10.4174776175        9.2276522277       13.5690313293
  C        11.3543791571        7.8636072941       12.3170377276
  H         4.1970249377       -0.2842748897       38.3785920796
  H         3.8767090270       -1.7652222896       37.7561934040
  C         6.0999215425       -1.2215253112       38.0210748376
  H         2.4340992080       -1.8768295662       18.8344103152
  H         3.9184070257       -1.2318995055       18.0871913723
  C         2.4431835278       -2.0617485858       16.8103475349
  H        17.3813148928        2.9669713187       24.2723880545
  H        16.6023273945        1.3917993177       24.1708030133
  C        18.2476824355        1.7198945246       22.8207163783
  S        11.8409979591        6.2885497996       11.9239194919
  C        11.5360497833        8.8523553409       11.3167290672
  H         6.6857379568       -0.4012720451       38.2882476314
  H         6.1261738251       -1.9455246337       38.8715016355
  H         6.7690371670       -1.8301089341       37.3818492499
  H         1.4448714446       -2.2222951023       16.6008413606
  H         3.0420599975       -2.9436361296       16.7012034979
  H         2.8168863198       -1.5017018513       15.9718660078
  H        18.6510394534        2.4589974213       22.1947087079
  H        18.0557460538        0.8952703141       22.1597414124
  H        19.0680015326        1.3677474301       23.4556083597
  C        12.3087760673        6.9894530032       10.3072139494
  N        12.1422294189        8.3324074021       10.2363573288
  O        11.2673607397       10.0538028046       11.4379675480
  S        12.9300366636        6.0716378528        8.8774137314
  C        12.3774214148        9.1634372531        8.9873926580
  H        12.8101139257       10.1054230306        9.2331012368
  H        13.1206205713        8.6578571831        8.3630543720
  C        11.0732531233        9.4207584035        8.2112847572
  H        10.2613440654        9.7461959598        8.8997425618
  H        11.1319108393       10.2537984273        7.5998192869
  H        10.7119831374        8.5443821238        7.6865529691
  H        -3.7977976904       14.6920263866       16.8368155615
  C        -3.2914078863       13.7859978509       16.6924768260
  H        -4.0548374245       13.0356300279       16.7840363069
  C        -2.2599393290       13.5452455517       17.8110379505
  C        -2.7009263493       13.6470855270       15.3071076392
  C        -2.9378858274       13.3453251470       19.1322715073
  H        -1.6687115785       12.6277618347       17.5698880667
  H        -1.5665448853       14.3921679961       17.9247728059
  H        -3.3876163399       13.8977380846       14.4425878919
  H        -1.8024864680       14.1638839545       15.5341092318
  H        -2.3552124275       12.6822859397       15.0012337113
  C        -1.8738345935       13.3228666657       20.2131086246
  H        -3.4891321850       12.3510277820       19.1748277164
  H        -3.5840631427       14.2213691112       19.3629860026
  C        -2.3865661639       13.4040629527       21.7091797750
  H        -1.4043609646       12.4108944821       20.1429908928
  H        -1.1538621110       14.0859962202       20.0812896136
  C        -1.4651575496       12.7794981554       22.7245208778
  H        -3.2926983190       12.7958590846       21.7978697694
  H        -2.6820016610       14.3890714898       22.0214123868
  C        -0.1946327918       13.5910809775       22.7979505749
  H        -1.9717421035       12.5823466613       23.6708560392
  H        -1.1856077792       11.8346663971       22.2932482269
  C         1.0086981545       12.8609178519       23.4262479664
  H         0.1148373661       13.8709152021       21.7861069635
  H        -0.4682296411       14.5868878490       23.2119406290
  C         1.4253306480       11.4932118330       22.7459484836
  C         0.5789044338       12.1349503179       24.6569493868
  C         2.2509922213       13.7911205164       23.7399512805
  C         1.2126180710       10.4239892863       23.6490659012
  C         1.9474459444       11.1293712323       21.5068931642
  C         0.6324777617       10.8197956468       24.7844788205
  C         0.1500264918       12.8407092237       25.7994581628
  H         2.4058495082       14.3474863175       22.8281781332
  H         1.9738259344       14.4701763482       24.5228257231
  C         3.5625736003       13.1034246041       24.2070606576
  S         1.5672024138        8.9077763678       22.8559365233
  C         2.0553874301        9.7652898348       21.3872168486
  H         2.1162768694       11.8326858116       20.7210865687
  C         0.2231411058       10.2201759287       25.9592248041
  H         0.1645985468       13.9330571410       25.6959134562
  C        -0.1871323735       12.2384398708       27.0060047700
  H         3.7542115009       12.2824416396       23.4465246337
  H         3.4037122036       12.5830044372       25.1460270876
  C         4.8674805222       13.9325868716       24.1968783486
  C         2.5177226783        9.1193670114       20.1139146505
  C        -0.2084866470       10.8803957462       27.1076016189
  H         0.3344204825        9.1385142165       26.0638748471
  C        -0.6859461822       12.5297151085       28.2708896735
  H         5.5826675248       13.5982847131       24.8968176719
  H         4.7220900025       14.8680986553       24.7686017357
  C         5.4552853427       14.0276613425       22.6836795347
  C         2.6439498706        7.7338502174       19.9156628723
  C         2.8682643649        9.9545469694       18.9442184265
  C        -0.6178338495       10.1251617896       28.3090018774
  C        -0.8384975639       11.4402887853       29.0876207938
  S        -0.8912277209       14.0116910480       29.1639812187
  H         6.1625715093       14.9671951720       22.6331476918
  H         4.8033117687       14.1275154438       21.8603793456
  C         6.3312537024       12.7651979007       22.3510475621
  N         2.4122958355        6.7499315692       20.8513518393
  C         2.9057343541        7.2159448977       18.6580931893
  C         3.1713102643        9.4094247952       17.6666495088
  H         2.9187996038       11.0235874464       19.0528538381
  C         0.6600242309        9.3501018377       28.7608576506
  C        -1.8838510364        9.2591598032       28.1703993318
  C        -1.2548799021       11.8188854433       30.3910290095
  C        -1.3260407999       13.2030520992       30.6245589059
  H         7.0612650109       12.6554557941       23.1911685281
  H         5.6664667038       11.8902459833       22.2522610655
  C         7.1165245337       12.9854775897       21.0553477340
  S         2.3796507205        5.3401547179       20.1190577000
  N         2.8150418396        5.8170440735       18.6973700927
  C         3.1411930810        7.9353612760       17.4446098009
  H         3.3618855534       10.1923807337       16.9363595672
  H         1.1159018726        8.7217321516       27.9481762499
  H         0.4060246500        8.7516058103       29.5881695682
  C         1.8815152917       10.0871027399       29.1562745070
  H        -1.6932108583        8.4943318434       27.4919479478
  H        -2.0975380510        8.6961612453       29.1085687046
  C        -3.1715568495       10.0165599335       27.8651404503
  H        -1.3913142037       11.0464296777       31.1022867364
  C        -1.6564159863       13.9231029574       31.8845709817
  H         7.8462054829       12.2259337012       20.9578894627
  H         7.5343469614       13.9954411443       21.1916971020
  C         6.2200727322       12.9694872352       19.7886662789
  C         3.4961869783        7.2644243477       16.2293466492
  H         2.3229861296       10.4501846722       28.2432185729
  H         1.6961570533       11.0371814731       29.7413143417
  C         2.9452009209        9.1265600862       29.7215298390
  H        -3.1309626050       10.5553557076       26.9441270748
  H        -3.3796536205       10.7545056291       28.6261015500
  C        -4.3951829771        9.0498413497       27.9921719885
  C        -1.6930037481       15.3427183270       32.0101583017
  C        -1.8681889261       13.1390229402       33.1074980312
  H         5.6000980415       12.0588702222       19.7139763905
  H         5.4138761705       13.6892588990       19.8632676902
  C         7.0782414585       13.2058413164       18.5939690777
  H         3.3573185747        6.2112572747       16.3093483089
  C         3.8729591377        7.7934225656       15.0206313086
  H         3.0822760112        8.3518342450       29.0509144626
  H         2.5080780423        8.7926983701       30.6854644155
  C         4.2224752408        9.8563301244       29.9619507356
  H        -4.3099157549        8.3902060170       27.0933513677
  H        -4.4861759483        8.5580997305       28.9969077255
  C        -5.7272416513        9.7798760014       27.7321338655
  N        -1.2863700900       16.2600563957       31.0709135764
  C        -1.9123144085       15.9100134699       33.2639232899
  C        -2.1937944254       13.7169895202       34.3341672619
  H        -1.8036545410       12.1172624367       32.9944551659
  H         8.1175257682       13.4945355560       18.8200291096
  H         7.1557978684       12.3685063274       17.8464608274
  H         6.8746957256       14.1044300102       18.0610432853
  S         4.2202382052        9.3812649064       14.6703601292
  C         3.9018167937        6.8986026119       13.9196320309
  H         4.6096943033       10.4531314737       29.1251976788
  H         3.9032729107       10.6222122085       30.6612076651
  C         5.3545654799        9.0034123940       30.5231505655
  H        -5.6956091644       10.6972054811       28.3646228455
  H        -6.5320723288        9.2347655069       28.2799616852
  C        -5.9734356705       10.2061128893       26.2153120654
  S        -1.6777277772       17.6917661114       31.5617924473
  N        -1.8731078407       17.3150335750       33.1320927789
  C        -2.1682081746       15.2009820141       34.4382781101
  H        -2.3311589516       13.0378057774       35.1198741728
  C         4.4421371141        8.8389849681       13.0482224199
  N         4.3471052014        7.5176899173       12.8352682619
  O         3.8955980631        5.6465681322       14.0394383379
  H         4.9803592214        8.6621476809       31.4647849355
  H         6.1642349177        9.6194376716       30.7619451281
  C         5.7981823997        7.8387268132       29.6035845794
  H        -5.1563093268       10.8725329776       25.9472211270
  H        -5.7435041654        9.3953602887       25.5169956629
  C        -7.3215565358       10.7639769192       25.8401976170
  C        -2.5022048167       15.9856985543       35.5573568837
  S         4.9188805720        9.8411654277       11.6610476153
  C         4.4373287420        6.8182211844       11.5013408858
  H         5.1253782829        7.8831803773       28.7383733611
  H         6.7144498060        8.0826411306       29.3040434826
  C         5.6679421575        6.4035871786       30.1841838801
  H        -7.5043658734       10.6222485706       24.7747904597
  H        -7.4127677801       11.8269928559       26.0495457113
  C        -8.4819259862       10.0826672894       26.5764918988
  H        -2.5330453438       17.0449783178       35.4061084673
  C        -3.0161030679       15.6689656925       36.7836851606
  H         5.2721170139        7.2163230617       10.9039835038
  H         4.6612828551        5.8033145852       11.6380902003
  C         3.1375875630        6.8917608252       10.7402637651
  H         5.8285836486        5.6577636795       29.3943795772
  H         4.7028999488        6.2255240950       30.6113574124
  C         6.7366413571        6.1620473910       31.2201097247
  H        -8.4009537804        8.9402148734       26.5062447923
  H        -8.4267470122       10.3999659732       27.6545678200
  C        -9.8560793917       10.3739963217       26.0455086429
  S        -3.6763382518       14.1771855527       37.2383662414
  C        -3.0865831412       16.7412991025       37.8167036963
  H         3.1417268280        7.6888961399       10.0113498350
  H         3.1237597583        5.9358844450       10.1533047549
  H         2.3134725571        6.9518335121       11.3398822384
  H         7.2777253103        7.1196167283       31.5114443514
  H         7.3974564774        5.3531702008       31.0089225718
  H         6.0979565762        5.9570254501       32.0908964207
  H       -10.1780220567       11.3942733893       26.1981683630
  H       -10.5362352355        9.7250722164       26.6000249510
  H        -9.9525230014       10.0311372225       25.0143425519
  C        -3.9633727423       14.9431016578       38.8420981131
  N        -3.7940360673       16.3065543668       38.8811877038
  O        -2.6992975114       17.9177070775       37.6436649178
  S        -4.9733760872       14.1976868785       40.1604210521
  C        -3.8854630640       17.1072227086       40.1150798499
  H        -4.1715351381       18.1203604667       39.7679818726
  H        -4.6364923356       16.8114940091       40.8276941714
  C        -2.5935911561       17.1387657004       40.8331911287
  H        -2.5046785127       16.1950466874       41.3899944890
  H        -1.7085545984       17.1507133484       40.1530049565
  H        -2.5254571647       17.9341758042       41.5729711070
