352
 i =    21900, time =    21900.000, E =        24.2612800464
  H        11.5843412969        7.0957446754       32.7089761883
  C        11.5188117570        6.0802823853       32.2546265736
  H        12.3998780193        5.8816433759       31.6582201171
  C        10.2474583605        5.9750838986       31.3884577453
  C        11.4991277341        5.0841140151       33.4127172570
  C        10.3588906476        5.0461910573       30.1196212699
  H         9.4367235180        5.6498416589       32.0336510757
  H        10.0576586075        7.0237029879       31.0075318584
  H        12.3597132088        4.3743558284       33.5095951824
  H        11.4766807416        5.8009736866       34.2857161887
  H        10.5848324772        4.4955224576       33.5363781539
  C         9.4417255783        5.3278196126       28.9704827882
  H        10.2404305596        4.0439340087       30.4514766390
  H        11.3770588408        5.0852192051       29.7772167738
  C        10.1867088310        5.2075412080       27.6267683035
  H         8.6350557007        4.7020769452       29.1030045018
  H         9.0059862272        6.3322627380       29.1516820086
  C         9.1741539840        4.7416938836       26.5455075299
  H        11.0149133322        4.5241458491       27.6804281673
  H        10.6313620004        6.1152373962       27.3066720305
  C         7.9190239388        5.6120315013       26.3552299223
  H         9.6544883536        4.6444309191       25.5690006925
  H         8.8667883347        3.6653723556       26.7902587109
  C         6.8008097259        4.9378433354       25.4665069771
  H         7.5647795408        6.0609518945       27.2874469364
  H         8.2296370857        6.6169564998       26.0019159749
  C         6.5247291554        3.5899641060       26.0954565179
  C         7.3242385597        4.2671820410       24.1972593647
  C         5.5450922749        5.7694703057       25.3759802500
  C         6.9394253401        2.4882310916       25.3416262524
  C         6.0268388753        3.2260986798       27.3536386839
  C         7.3961364786        2.8929281717       24.1477523114
  C         7.8070413712        4.9743234308       23.0905462160
  H         5.8269949214        6.7063204952       24.8767117005
  H         5.2079418065        5.9546901632       26.3269797916
  C         4.3837066415        4.9833914335       24.6884568774
  S         6.5206991201        1.0109653975       26.1607620604
  C         5.9153871635        1.8841989692       27.5896889629
  H         5.9299560809        3.9773366979       28.0520799749
  C         7.8424866090        2.3671765172       22.9512724900
  H         7.8077892729        6.0755987670       23.1297909240
  C         8.2538936629        4.3982761267       21.9420280892
  H         4.6664554640        4.6853759297       23.6913022087
  H         4.1412825355        4.0287165893       25.2164813115
  C         3.0196373150        5.7996778579       24.6188443879
  C         5.5164424806        1.2156945578       28.8858826057
  C         8.2049200493        3.0644775713       21.8058396458
  H         7.9581015779        1.3253614874       22.8147829719
  C         8.7177545393        4.8114552795       20.7071924698
  H         2.3341280497        5.2963708686       23.9488796493
  H         3.3123766793        6.7181480256       24.0816001058
  C         2.5472832011        6.0781083033       26.0050276096
  C         5.5556388188       -0.1922356889       29.1286033446
  C         5.1860139276        2.0086680718       30.0595137372
  C         8.6573608134        2.3800169317       20.5434096704
  C         8.8771899815        3.7546110578       19.8427276430
  S         9.0149293271        6.3484475733       19.9586709025
  H         1.7384909506        6.8050964160       25.8295955575
  H         3.1850024292        6.7581758504       26.5930678347
  C         1.9781290278        4.8242808057       26.6641424950
  N         5.8498981492       -1.1941048359       28.1712673812
  C         5.3071294813       -0.7523572112       30.4168356292
  C         4.9636387975        1.5180226310       31.3683253381
  H         5.0377749264        3.0491149265       29.8093365272
  C         7.4854559523        1.5563445964       19.7868384956
  C         9.9648463017        1.6072254681       20.7079813597
  C         9.2588970076        4.1991738460       18.5553667153
  C         9.3896862303        5.5661130480       18.4539695233
  H         1.2408360277        4.4191609607       25.9506923308
  H         2.7594045550        4.0924130946       26.7543802383
  C         1.2534962007        5.0718337904       27.9335198286
  S         5.9241739915       -2.6643941499       28.9403867560
  N         5.5145465479       -2.1446901041       30.4573228499
  C         5.0007728000       -0.0189524243       31.5427937314
  H         4.5872452405        2.1757973345       32.1640346848
  H         7.1694198352        0.7114478291       20.4114552268
  H         7.9277141092        1.1975720172       18.8587482718
  C         6.2724340305        2.4975664014       19.4629745065
  H        10.1597448755        1.1637232922       19.7398964888
  H         9.9298869794        0.8454738736       21.4463573954
  C        11.2281752572        2.4516080113       20.9947923926
  H         9.4851528768        3.5029244119       17.7851093256
  C         9.8468753219        6.3129249220       17.2170279181
  H         0.6698752347        4.2327928489       28.3042368464
  H         0.6737968793        5.9942118263       27.7624721918
  C         2.1294356998        5.3809093146       29.1707456195
  C         4.8258914062       -0.7245232144       32.7988164111
  H         6.5260000505        3.2378412153       18.7504803974
  H         5.9059711134        3.0684504810       20.3442613720
  C         5.0662068490        1.7324904020       18.9060770169
  H        11.2027140536        2.9922657432       21.9218367323
  H        11.3316488682        3.2478953073       20.2766101795
  C        12.5797913175        1.6622369901       21.0632770859
  C         9.8905227674        7.7392723545       17.0733249317
  C        10.0865353896        5.5618263509       15.9836984114
  H         2.7922176345        4.5467808390       29.3728058450
  H         2.7058035586        6.3147106665       29.0529729730
  C         1.3035601246        5.5166604497       30.4220393266
  H         4.9837257724       -1.7185667288       32.7829717779
  C         4.6319856437       -0.2400214132       34.0761284292
  H         4.5542562065        1.2187797655       19.7144117423
  H         5.5441498876        0.9982049756       18.2782640630
  C         4.1170975546        2.6721703706       18.1151761961
  H        12.5327672555        0.9467078451       21.8624769779
  H        12.8610424391        1.0930479056       20.1832779065
  C        13.7276656259        2.6732389000       21.3186673993
  N         9.6385682754        8.6350914153       18.0694137906
  C        10.1871684897        8.4094160485       15.9083275789
  C        10.3865889566        6.1995247139       14.8057812097
  H         9.9319614975        4.4916314114       15.9759611412
  H         0.7831207320        6.4339649843       30.2974097819
  H         0.6549152823        4.7100357699       30.4716127004
  H         1.9690122336        5.5108693433       31.2610634643
  S         4.3150402508        1.3310876343       34.5723346733
  C         4.8381252874       -1.2211574356       35.1292134964
  H         3.8962929307        3.5272473120       18.8370606259
  H         4.5731847960        3.0089852292       17.2127674938
  C         2.8071475789        2.0140190127       17.7303649395
  H        13.3483251869        3.7273215922       21.0798135605
  H        14.5597510338        2.5971969318       20.5945614065
  C        14.1629652914        2.8453410809       22.7667376607
  S         9.7964503861       10.1840300020       17.5220936001
  N        10.2505823062        9.8359060618       16.0214059204
  C        10.5072360321        7.7429364234       14.7198884588
  H        10.5824928093        5.5989527852       13.9347290853
  C         4.1934317862        0.6179173377       36.1676703232
  N         4.4205322503       -0.6758366886       36.2620145124
  O         5.1554414478       -2.4372140537       34.9882521458
  H         2.3573644261        2.7007852017       17.1304420431
  H         2.3257017633        1.8664561923       18.7149206548
  C         2.9035763779        0.6433421953       16.9947882000
  H        14.7301814820        3.7773104792       22.7928265733
  H        13.2517256856        2.9221853550       23.4012339569
  C        14.9680746419        1.7134582554       23.2797049090
  C        10.7504985823        8.5550789159       13.5016102899
  S         3.6049106097        1.4917995582       37.5821726308
  C         4.4652671895       -1.3945091538       37.5185065554
  H         2.6064194360        0.6664718559       15.9192661260
  H         3.8568352988        0.1639549261       16.9935411769
  C         1.9441151788       -0.2809459444       17.7538971603
  H        14.8714434654        0.8566398568       22.6297781688
  H        14.5568667140        1.3956290101       24.2537869066
  C        16.3981238375        2.1126372436       23.4203394006
  H        10.5772213167        9.6302502875       13.6034847813
  C        11.3586991972        8.2858739676       12.2914586194
  H         3.5898523587       -1.0214098453       38.0610183138
  H         4.2433723362       -2.4314202733       37.3860534367
  C         5.8845517882       -1.3794053626       38.1015152677
  H         0.9461734767        0.2050032263       17.7357249377
  H         2.2175152969       -0.2551852745       18.8088930548
  C         1.8451952942       -1.6962896865       17.1557532675
  H        16.4286347121        3.1203847731       23.7490621020
  H        16.8193402658        1.4456306496       24.1843275938
  C        17.0891099528        2.0549040684       22.1314278544
  S        11.9902309491        6.7615222171       11.7953561983
  C        11.5754630649        9.3702567765       11.3766678416
  H         6.0350713420       -0.6534000225       38.9080328813
  H         6.2840839364       -2.3200977826       38.4735245501
  H         6.6255634240       -1.2017993946       37.3107316179
  H         1.2754278526       -1.6312968602       16.2610067381
  H         1.4396353915       -2.4495082928       17.7838139009
  H         2.8139565693       -1.9496928894       16.7166301026
  H        18.1427281713        2.1463955099       22.2001620054
  H        16.7485495689        2.9108659753       21.5288880092
  H        16.8736815420        1.1261525601       21.5861588718
  C        12.4383870305        7.5746718026       10.2607753590
  N        12.2377919633        8.9432313957       10.2765179192
  O        11.2907503568       10.5408647833       11.6085210656
  S        13.2551281865        6.8255468104        8.8385911247
  C        12.3081977244        9.8051295368        9.1448194998
  H        12.7014949588       10.7711384974        9.4176587169
  H        13.0028300892        9.3897175664        8.4522174542
  C        10.9127267798        9.8904229464        8.4565030586
  H        11.0371423094       10.5851926123        7.5882601761
  H        10.6063924531        8.8710654209        8.1391500510
  H        10.1772720559       10.2751922012        9.1603194503
  H        -3.3803296181       14.8429141989       16.6853101060
  C        -3.1962095261       13.7739938171       16.6119395027
  H        -4.0210195158       13.3216608134       17.0792874346
  C        -2.0751542550       13.6741753478       17.6372203979
  C        -2.8115986079       13.3447746224       15.1880527682
  C        -2.5660778265       13.9843918584       19.0589856746
  H        -1.6671447614       12.6220235078       17.5472914115
  H        -1.3329125632       14.2963013715       17.2228814626
  H        -3.7179502382       13.1265781209       14.6152536139
  H        -2.2367792679       14.0331646475       14.5097941205
  H        -2.0555361209       12.5407590698       15.2124704859
  C        -2.1710730685       12.9128331477       20.0251353924
  H        -3.6006592093       14.1181276713       19.1239770495
  H        -2.2643143151       14.9653349242       19.5251957992
  C        -2.5996748077       13.2966479997       21.4922954406
  H        -2.3671260973       11.8749392986       19.7582424361
  H        -1.0325221460       13.0594038239       20.0114135721
  C        -1.4886046479       12.8184692332       22.4839901228
  H        -3.5455033159       12.8562350042       21.7538428390
  H        -2.7298213822       14.3700986474       21.6667587484
  C        -0.1933077164       13.6129580547       22.5492791897
  H        -1.8549606900       12.8060863984       23.5081792658
  H        -1.2388695937       11.7875377650       22.1266867419
  C         1.0080481313       13.0207867100       23.2918708019
  H         0.1132570460       14.0623261524       21.6261216791
  H        -0.4429430845       14.4701806990       23.2049285005
  C         1.3666105262       11.7268814012       22.6095735794
  C         0.5950274373       12.2751749649       24.5395641422
  C         2.2391703754       13.9821871899       23.5122441278
  C         1.2985487684       10.6032473202       23.4498499061
  C         1.9022366736       11.3087665771       21.3486780211
  C         0.6813983538       10.9580908958       24.6247884659
  C         0.0093031654       12.8994092420       25.6636472827
  H         2.5113855531       14.3577753965       22.5515705090
  H         2.0612773398       14.8356956434       24.0541836783
  C         3.5022560409       13.2888385418       24.0155730060
  S         1.8332253345        9.1024982981       22.7097955115
  C         1.9779850390        9.9397521904       21.1835978822
  H         2.0478375017       12.0666043641       20.5807408822
  C         0.3213858640       10.3319187143       25.7939834808
  H        -0.1721367576       14.0055037676       25.7616070983
  C        -0.2995936038       12.2748098596       26.8492174552
  H         3.7996667255       12.4983070258       23.3373112980
  H         3.3115171166       12.7959272065       25.0041337256
  C         4.6206021615       14.2339235275       24.0265763932
  C         2.4187160819        9.2645083741       19.8835304416
  C        -0.1927313055       10.9118583557       26.9154862739
  H         0.3447057875        9.2761387138       25.7646641375
  C        -0.7883678143       12.6385787683       28.0825198303
  H         5.2791375758       14.0440663971       24.8317831105
  H         4.4576432691       15.2501456646       24.2763523534
  C         5.3716309058       14.3708731466       22.6698143841
  C         2.3532786037        7.8789242038       19.6244179569
  C         2.8101030289       10.0643868570       18.6615570772
  C        -0.6126963226       10.1817200501       28.1393961737
  C        -1.0358981119       11.5238956719       28.8536645022
  S        -0.9536793931       14.1062048405       28.8994441272
  H         6.0031018697       15.2337614692       22.8471305598
  H         4.6779956478       14.5644523534       21.8634672361
  C         6.3041179210       13.1628967730       22.3247101174
  N         2.0645159681        6.9256672808       20.6366679680
  C         2.5799717087        7.3103230805       18.3516333412
  C         3.1845952670        9.5355069211       17.3897468420
  H         2.8996601605       11.1364762834       18.7745327271
  C         0.4530979169        9.3725050874       28.7224315106
  C        -1.9029548884        9.3377773738       27.8285507938
  C        -1.3968642359       11.8765728627       30.1625868231
  C        -1.3764637948       13.2502216467       30.3417320236
  H         6.5716678426       12.7768075512       23.3307177505
  H         5.7497441693       12.3759316038       21.8021961436
  C         7.5999009686       13.4346379528       21.5660283242
  S         1.9655945160        5.4930354978       19.9649404806
  N         2.3823604855        5.8811754460       18.3810841058
  C         2.9303699875        8.0789168889       17.1954181156
  H         3.6269069228       10.1037432918       16.6009685812
  H         0.5854107656        8.6069772836       28.0312915213
  H         0.0708846706        8.8366748688       29.6174544950
  C         1.7311939162       10.0835693275       29.1456933051
  H        -1.6983441108        8.8262079376       26.8832888094
  H        -2.0313542424        8.6928019000       28.6351346944
  C        -3.2111983748       10.0691836972       27.6723121096
  H        -1.6900120807       11.1949503101       30.9222012834
  C        -1.7220821739       13.9701272292       31.5867261466
  H         8.3431800207       12.8108478195       21.9575135587
  H         7.8845638223       14.4693227959       21.6803858219
  C         7.4373925047       13.3252449016       19.9768802489
  C         3.2711729436        7.3229847792       16.0502206539
  H         2.1558816680       10.7842633904       28.3725471623
  H         1.4390614239       10.6977679123       30.0225576564
  C         2.9037560376        9.1613646452       29.5689279353
  H        -3.2314483977       10.8506160235       26.8004616285
  H        -3.3570120412       10.6570512811       28.5726453608
  C        -4.4058086793        9.1338637830       27.5036713702
  C        -1.7958266514       15.3468681682       31.7959973282
  C        -1.9579469328       13.1671813175       32.8315456716
  H         8.1691866995       13.9449835773       19.4150319412
  H         7.8735307853       12.3396502156       19.6929733032
  C         6.0162969236       13.6324352956       19.3733707951
  H         3.0433737519        6.2541822458       16.2581128154
  C         3.5284131303        7.6235581568       14.7309549122
  H         3.2758653613        8.6786771900       28.7200376351
  H         2.5958554433        8.3596902351       30.2178436042
  C         4.0946983156        9.9927640906       30.1832741432
  H        -4.2190593385        8.5424286316       26.5698598371
  H        -4.3728307834        8.5274709974       28.3705166692
  C        -5.6764323551        9.9766088320       27.5531704306
  N        -1.5190150623       16.2908356007       30.8297626187
  C        -2.2058801024       15.9771664929       33.0160962048
  C        -2.3905649211       13.7447378106       33.9452157084
  H        -1.9444286228       12.0879501934       32.8645928717
  H         5.9594726268       13.5399584503       18.2871336982
  H         5.2425982714       13.0539568571       19.8355426636
  H         5.6409439733       14.6039054565       19.5601124459
  S         3.8746482431        9.2327373698       14.2263349303
  C         3.5749553676        6.5561184761       13.7067212935
  H         4.3139687401       10.7883435615       29.4207396168
  H         3.8605052072       10.4010651420       31.1959008472
  C         5.2777628953        9.0453322834       30.3714720686
  H        -5.4031855445       10.9962957731       27.1982375983
  H        -6.0832431301       10.0871142342       28.5931884734
  C        -6.7504992778        9.4732686911       26.5498439373
  S        -1.6061271969       17.7834026078       31.4413071403
  N        -2.1824781156       17.3476854163       32.9341888014
  C        -2.5114953652       15.1867618302       34.1175675548
  H        -2.4354172402       13.0710577336       34.7391567056
  C         4.1555089837        8.4240784433       12.6287805104
  N         3.9976875620        7.0804166055       12.5681021009
  O         3.4265141630        5.3295503520       13.9881856126
  H         5.9383886187        9.5457447977       31.0409469046
  H         5.8621260646        8.9744941187       29.4466415543
  C         4.8981593186        7.6963048579       30.9996176369
  H        -6.4444135227        9.1388154968       25.5912248947
  H        -7.1733517343        8.4440402725       26.9045340852
  C        -7.9639256075       10.3209740897       26.6982843720
  C        -2.6288098995       15.9109369159       35.3154916020
  S         4.5726695402        9.2887637919       11.2114695423
  C         3.9932733011        6.4003997744       11.2888444455
  H         4.1091088493        7.7875663245       31.7511635370
  H         4.4673723025        7.0449757861       30.2133074985
  C         6.0551348307        6.8198250099       31.6576619727
  H        -7.7623833005       11.2946864210       26.2443290466
  H        -8.1452745425       10.4598886135       27.7571542275
  C        -9.1699716261        9.6941386086       26.0574024528
  H        -2.2089714026       16.9119169914       35.3169765970
  C        -3.1180430414       15.5379281519       36.5273541713
  H         4.7843557342        6.7998935206       10.6458251920
  H         4.1047295848        5.3012073457       11.5002900426
  C         2.6657514392        6.5542081322       10.5796451323
  H         6.2255071423        7.2227105906       32.6757019220
  H         6.9744053545        6.8132773911       31.0686146483
  C         5.5529113575        5.3514788191       31.7664880124
  H        -9.3332269168        8.6517178820       26.3957672465
  H       -10.1595893068       10.1893798631       26.2713278065
  C        -8.9101962163        9.6086049561       24.5270322923
  S        -3.9072984494       14.0310155455       36.9293923324
  C        -3.2026620859       16.5992204340       37.6209570128
  H         2.1434152692        7.4563486932       10.8987737448
  H         2.8109809125        6.5859762150        9.5123644218
  H         1.9696438520        5.7577984622       10.8229528533
  H         4.5794287980        5.2220793494       31.3944475585
  H         5.3064044949        5.3075965772       32.8199343328
  H         6.2949997651        4.5698403705       31.5322879186
  H        -8.2118236058        8.7725411987       24.4234841694
  H        -8.6142260034       10.5602331928       24.0807288089
  H        -9.9170477141        9.3563459341       24.1323970049
  C        -4.0361136809       14.7033612130       38.5182959855
  N        -3.7464270213       16.0470319799       38.7022250326
  O        -2.7791514396       17.7630864100       37.6026502772
  S        -4.7657574541       13.7699582856       39.7788087385
  C        -3.9192206882       16.6690692177       39.9677060775
  H        -4.3146599126       17.6993210988       39.8190446531
  H        -4.7053663912       16.2946204266       40.6251288385
  C        -2.5941029309       16.8318173685       40.7452018075
  H        -2.5443507887       16.2195126827       41.5281809902
  H        -1.8245003791       16.5907999281       40.0949246688
  H        -2.4885427045       17.8628613045       41.0261351400
