352
 i =    75100, time =    75100.000, E =        25.3256830129
  H        12.5091052467        6.0032947332       32.4276833656
  C        11.4237732166        5.7514273323       32.3808464831
  H        11.3537998831        4.6530477960       32.4025277655
  C        11.0018423642        6.1949675224       30.9796012926
  C        10.5860171755        6.3878833779       33.5552671524
  C        12.0190868332        5.7985905785       29.8903433809
  H        10.0717690385        5.8274282333       30.6788536254
  H        10.8085090090        7.2939742558       30.9159547555
  H        10.6468571107        5.7484250236       34.3835258980
  H        11.2101315007        7.2226331401       33.8608415046
  H         9.6605400856        6.8066982670       33.1762432069
  C        11.3599611116        4.9588145656       28.7800046619
  H        12.8511096684        5.1722857478       30.2769592206
  H        12.5867748781        6.6830347951       29.5582873617
  C        10.5111824904        5.6858178059       27.8158375648
  H        12.2000303738        4.3002518489       28.3040179716
  H        10.7974643321        4.1818461957       29.2854698546
  C         9.3787431345        4.8830977020       27.1211343994
  H        11.1771104025        6.0927580738       27.0340430624
  H        10.0917254466        6.6420046096       28.2120581666
  C         8.4763477650        5.7632253001       26.3311440830
  H         9.8077345783        4.1322004857       26.4465401181
  H         8.8447829510        4.4102543384       27.8860654164
  C         7.3845083699        5.0381122328       25.5041514744
  H         8.0577354522        6.4057600318       27.0959653902
  H         9.0756347462        6.3998601213       25.7168190581
  C         7.1115832284        3.6943807043       26.1985559575
  C         7.8503117362        4.3073089199       24.2693778852
  C         6.1385708398        5.9540401633       25.0546727074
  C         7.2550114671        2.5615622353       25.3748380719
  C         6.5976458726        3.3149409680       27.4649521528
  C         7.7698109507        2.9797529395       24.1237190559
  C         8.2748543830        4.9755502024       23.1348027961
  H         5.4735895179        5.3625188977       24.3644851321
  H         6.3317519970        6.8660358807       24.5058732133
  C         5.3001037331        6.3337699165       26.3201484118
  S         6.5857917538        1.1359699035       26.0001103533
  C         6.3431769411        1.9802881125       27.5261287684
  H         6.3510316984        4.1276052946       28.1964076569
  C         7.9572350365        2.4307430636       22.8650604024
  H         8.4805350866        6.0079850407       23.2128251620
  C         8.5845998512        4.3931845931       21.9421797128
  H         5.8930782052        6.1100107490       27.1495942272
  H         5.1717446668        7.4402070719       26.3432476989
  C         3.9654019545        5.7331757846       26.4423008184
  C         5.8215497290        1.3624445175       28.7467970054
  C         8.4914296938        3.0594372637       21.7567476398
  H         7.8350041740        1.3772039338       22.6275333477
  C         8.9793452433        4.8788494794       20.6834051667
  H         3.9546000006        4.6773964461       26.2807016619
  H         3.2868650161        6.0533920399       25.6195016794
  C         3.3279565471        6.0761732434       27.7460302018
  C         5.9244018915       -0.0184057876       29.0106458100
  C         5.3158552622        2.2287764089       29.7860743655
  C         8.9297014023        2.4705993975       20.4135989700
  C         9.1775749315        3.8567844625       19.7637009487
  S         9.2652862864        6.4569986096       19.9809085332
  H         2.8505937215        7.0318607936       27.6483489003
  H         4.0329853435        6.1288145664       28.5962540588
  C         2.2392126078        4.9991938805       28.1095062760
  N         6.3782412137       -0.9953123672       28.0777026409
  C         5.5594783616       -0.5722513286       30.2368048315
  C         4.9416417270        1.7159933060       31.0110155640
  H         5.3232195358        3.3060441660       29.7036012611
  C         7.7826758885        1.7542512310       19.7360117929
  C        10.2474187960        1.6486160003       20.3907112953
  C         9.6575952281        4.3267081779       18.5533497436
  C         9.7277358112        5.7121827561       18.4501665557
  H         1.8145222573        4.7598150426       27.1166904602
  H         2.5242519284        4.0462576606       28.4675352510
  C         1.3263401258        5.5860705696       29.1544629480
  S         6.3309431542       -2.4339255477       28.8168285988
  N         5.8948352782       -1.9408282817       30.3261038737
  C         5.0650096129        0.2794834049       31.2907256275
  H         4.6819967189        2.4826409544       31.7740516169
  H         7.2828304175        0.9402928560       20.3019569901
  H         8.1514464818        1.3330690419       18.8995872210
  C         6.5866384201        2.7116118640       19.4063861163
  H        10.5552960355        1.3060073708       19.3821553353
  H        10.1074054575        0.7511322173       20.9754644516
  C        11.4773872326        2.3339824901       21.0239336449
  H         9.7283820545        3.5863792181       17.7434375290
  C        10.1180467884        6.5080218634       17.2538568227
  H         0.4606965952        6.0106224091       28.5923649308
  H         1.8111842311        6.5038896312       29.4559287615
  C         1.0090966127        4.7736168261       30.3611469156
  C         4.8009960844       -0.3123082869       32.5745914959
  H         6.6446839176        3.1851279784       18.4156749686
  H         6.5750164099        3.4716330503       20.1822448736
  C         5.1875255424        2.0525830794       19.3017141291
  H        11.1724671381        2.8102252187       21.9672470275
  H        11.7932723542        3.1355309708       20.3112113708
  C        12.7516979675        1.5019832272       21.3111568426
  C        10.1245217003        7.9461877449       17.1348921735
  C        10.4442522959        5.8506330849       15.9795130211
  H         0.4611559505        5.2856828801       31.1521862610
  H         0.4945579288        3.9107059238       30.0714354446
  C         2.3982441882        4.5303481627       31.1408347082
  H         4.7999587441       -1.3615698223       32.5742219413
  C         4.5758368068        0.2284439540       33.8161439091
  H         4.4172747797        2.7589039500       19.6099603495
  H         5.1304028424        1.1945282678       19.9267785985
  C         4.7569419645        1.5725976887       17.8979347276
  H        12.6838025251        0.8006431714       22.1781146724
  H        12.8165816350        0.8823569409       20.4767742392
  C        14.0888826685        2.2819650434       21.4276852446
  N         9.7912792682        8.8315728524       18.2043603860
  C        10.4374428493        8.6159941714       15.9788269832
  C        10.6663174910        6.4828129811       14.7142574446
  H        10.4216593499        4.7904852209       15.9590237114
  H         2.5815262334        5.3627201993       31.7752184913
  H         2.1469691330        3.7561772930       31.8065893074
  H         3.1727282405        4.1985251924       30.6026879664
  S         4.2338445316        1.8505977690       34.2505125253
  C         4.3980164758       -0.7021742092       34.9760076858
  H         4.7906532907        2.4734227082       17.2031868350
  H         5.4961446551        0.8089465374       17.5192165970
  C         3.3073385185        1.0245097780       17.8194050217
  H        13.7750215682        3.0226156574       22.1185274815
  H        14.3324797312        2.8564621977       20.4986496717
  C        15.1610731168        1.4830294723       22.0768330959
  S         9.9606807821       10.3890579318       17.6701125429
  N        10.2871872322       10.0636322618       16.0493878231
  C        10.6704246834        7.9308378291       14.6934406553
  H        10.8095163102        5.8195726330       13.8424476258
  C         4.1135495818        1.3518654882       35.9343369820
  N         4.1014588897       -0.0010904118       36.0615656883
  O         4.4617817704       -1.9515383651       34.8694124596
  H         2.8226905666        1.1807867440       16.8834282509
  H         2.7036873274        1.6140702839       18.5082546204
  C         3.2119687028       -0.4153740555       18.2110708457
  H        14.6592186360        0.7879375413       22.7764378478
  H        15.7178250399        0.7859672412       21.4304581735
  C        16.0837610373        2.4351468480       22.7633268308
  C        10.9597722433        8.7348110592       13.5183594571
  S         3.5110699800        2.3114485362       37.2879591765
  C         4.1150720734       -0.7070944070       37.3421707772
  H         3.9258962115       -1.0199275240       17.7895612778
  H         3.4513546107       -0.5403754240       19.2543099668
  C         1.8769346495       -1.1006746664       17.9944342460
  H        15.5897945973        2.9988599078       23.5528359272
  H        16.4009705561        3.0449165370       21.9844402734
  C        17.3251571808        1.7419316771       23.3030125860
  H        10.8955024603        9.7298254667       13.7007197703
  C        11.3524890326        8.3652924424       12.2515118764
  H         3.6638984588       -0.1484438453       38.1341799820
  H         3.5629574200       -1.6738423850       37.4990803869
  C         5.5239452369       -0.8586753652       37.8928293436
  H         1.1233089271       -0.3393290194       17.7410829667
  H         1.5639688852       -1.5797786842       18.9091331255
  C         1.8780430817       -2.0559346805       16.7936315883
  H        17.5927859130        2.1705986002       24.3036544148
  H        17.0198233692        0.7494612654       23.6411364730
  C        18.5176958165        1.7238862157       22.4113507813
  S        11.9750100298        6.8058547579       11.6873693980
  C        11.3512299735        9.4151453638       11.2050206909
  H         5.4975294044       -0.6515126990       38.9083027414
  H         5.8706537513       -1.9019906144       37.8117421761
  H         6.2841167444       -0.2599984571       37.4195298828
  H         2.7986601640       -1.9390754923       16.2594938662
  H         1.1834603606       -1.7644629739       16.0655382593
  H         1.6517663337       -3.1302688128       16.9669504111
  H        19.2988288565        1.2395157898       23.0119507138
  H        18.6629011741        2.7207393925       22.1974595757
  H        18.3838395337        1.1432834238       21.5106767214
  C        12.1866881169        7.5361943517       10.0831754642
  N        11.9600904893        8.9326542388       10.0211463824
  O        11.1163412821       10.6223086348       11.4868467466
  S        12.9741069668        6.7535081608        8.6459750845
  C        12.0795617066        9.8084980878        8.8487894840
  H        12.1970787955       10.8486504827        9.2421983702
  H        13.0658123814        9.6028249060        8.3335401032
  C        10.8500858708        9.6144940985        7.9405198313
  H        10.8150337307       10.4234767990        7.3023976345
  H        10.9014085233        8.6591286398        7.4182049136
  H         9.9697393415        9.5454440661        8.5070412392
  H        -3.4009262838       14.8657328976       16.2280438080
  C        -2.9302401118       13.9121831350       16.4349846031
  H        -3.7027733564       13.1285743946       16.4288162886
  C        -2.1538981205       14.0535181678       17.7103651052
  C        -2.0504141075       13.5008290752       15.3317424374
  C        -2.9409556477       13.3494571240       18.8736587708
  H        -1.1552631913       13.6484298395       17.5766321181
  H        -2.0407640084       15.0887175464       18.0259498195
  H        -1.9700641278       12.4433702254       15.4745854171
  H        -2.4710816938       13.8971084218       14.3514818375
  H        -1.0357770116       13.9251506625       15.5934628822
  C        -1.9654799110       13.0158238939       19.9598327289
  H        -3.4304474371       12.4135419665       18.5813982968
  H        -3.6912598701       14.0649833910       19.1551980298
  C        -2.5485415962       12.9884398210       21.3436913272
  H        -1.4465681048       12.1126641338       19.7739662871
  H        -1.2626035110       13.8833815812       19.9256088642
  C        -1.5806545222       12.5449374334       22.4045085041
  H        -3.3863248271       12.2694130964       21.4292592104
  H        -2.8301258198       13.9591902191       21.6850097609
  C        -0.2734626551       13.4083357034       22.6114981561
  H        -2.1508172189       12.5473604718       23.3083682086
  H        -1.2843963619       11.5403653001       22.1606679999
  C         0.8435959177       12.6677428133       23.2715338710
  H         0.1090496917       13.7595134390       21.6442031847
  H        -0.5301936953       14.3304112085       23.1506645162
  C         1.3310797366       11.4295871819       22.6218462746
  C         0.4052255340       11.9579400847       24.4702706011
  C         2.0606898845       13.7506265949       23.4118268264
  C         1.0997751685       10.2931943825       23.3304039156
  C         1.9830192037       11.1911694683       21.4033961656
  C         0.5209287504       10.6345199178       24.5539563593
  C        -0.0668771060       12.6417296941       25.6012974997
  H         2.3033527135       14.1792002442       22.3973397749
  H         1.7500529791       14.5609855054       24.0167527392
  C         3.2820186361       13.1128965392       24.0377290317
  S         1.5987581642        8.8472584586       22.4826567704
  C         2.0841125185        9.8678050427       21.1229697893
  H         2.2737488916       11.9946607944       20.7479314284
  C         0.0958648472       10.0097373106       25.6945526380
  H        -0.0845705274       13.7333143916       25.6567355033
  C        -0.3931992733       11.9843083769       26.7172061984
  H         3.5817183143       12.1443395707       23.4645033100
  H         3.1117021228       12.7456899237       25.0136302407
  C         4.4602429994       14.0590248163       24.0822299169
  C         2.5363968311        9.2625205738       19.8653691228
  C        -0.3444132145       10.6618517140       26.8442301685
  H         0.0876254993        8.9329906844       25.6673390956
  C        -0.7049402072       12.4286839692       28.0043359777
  H         5.1912721024       13.4594550587       24.6106694056
  H         4.3490600395       14.9478925325       24.7072866041
  C         5.2414640125       14.4547519168       22.7522984063
  C         2.6866490160        7.8695466569       19.5756578856
  C         2.9214024437       10.1256793273       18.7313238561
  C        -0.6640429022        9.9947749466       28.1319874490
  C        -0.8724634804       11.2939877900       28.8356206512
  S        -0.9535612526       13.9426715160       28.7916879874
  H         6.0048970190       15.1754542062       23.0345581999
  H         4.6678838677       14.9213240278       21.9519565241
  C         5.9785287065       13.1958781445       22.2583740557
  N         2.4431550969        6.8515504293       20.4974334489
  C         3.1009545768        7.4087905689       18.3303754105
  C         3.2785033250        9.6995531246       17.4459933285
  H         3.0935496225       11.2067061582       18.8729785279
  C         0.5085037534        9.1408227398       28.7304326700
  C        -1.9392783970        9.0963294732       28.0822096839
  C        -1.1361264861       11.6989618103       30.1521170933
  C        -1.3351425680       13.0539488319       30.2406974723
  H         6.6266406307       12.9410749680       23.0877360264
  H         5.3229500297       12.3941361711       22.1092294804
  C         6.8965186872       13.4151885760       21.0492053422
  S         2.6747829041        5.4557980799       19.8315047921
  N         3.1676426615        5.9708369228       18.3453906764
  C         3.3107681907        8.2164377548       17.1670903204
  H         3.7388485920       10.4765033923       16.8513499431
  H         0.4946691918        8.2103705497       28.1059716966
  H         0.2202942112        8.8208502380       29.7500756276
  C         1.8196142796        9.9673350728       28.7790978156
  H        -1.7870629880        8.2099786586       27.4439056512
  H        -2.3160414085        8.6559003129       29.0780961207
  C        -3.0310999332        9.9015864284       27.3889952362
  H        -1.0751625411       10.9441056277       30.9121891730
  C        -1.6615144519       13.7715180440       31.5218873584
  H         7.2819800691       12.4517010656       20.7397856170
  H         7.7141914622       14.0648308756       21.2197130291
  C         6.1035376943       13.8911409691       19.8151026456
  C         3.5218704818        7.5757677310       15.8708821908
  H         2.2038236348       10.0638314205       27.7953066595
  H         1.6878556503       10.9330551008       29.2293670241
  C         2.9908421674        9.2991468510       29.5187131261
  H        -2.7636314528        9.9283108805       26.3561490393
  H        -3.2024020772       10.8595259553       27.8647033231
  C        -4.3778140560        9.2737804624       27.4044942511
  C        -1.9150981530       15.1632918796       31.6327409675
  C        -1.6953980229       12.9483123257       32.7358189965
  H         5.2226941191       13.2926045199       19.5626208697
  H         5.6811377316       14.9102765471       19.8432752436
  C         7.0714213851       13.8579237338       18.5736517944
  H         3.2729983465        6.5773252069       15.8975644017
  C         3.7856428770        8.1051843798       14.6115064466
  H         3.3582124763        8.5746116681       28.8662113415
  H         2.6847137794        8.8270311457       30.4404051954
  C         4.0769301473       10.3423144180       29.7609768653
  H        -4.1738704866        8.1578867245       27.1650330783
  H        -4.8866768629        9.2462010231       28.3585182628
  C        -5.1838756918       10.0155209810       26.3918788478
  N        -1.7819586020       16.1312603596       30.6684593059
  C        -2.1078299667       15.7651414281       32.8524211816
  C        -1.9995709065       13.5479110325       33.9677128941
  H        -1.5141941646       11.8644421311       32.7071230722
  H         8.1247011488       13.9746775632       18.8510842696
  H         6.9489877307       12.9289289706       18.0172833893
  H         6.8507002320       14.5958493248       17.8622129172
  S         4.1403597903        9.7234770733       14.1794799252
  C         4.0039504817        7.1670606245       13.4922879781
  H         4.2405924785       10.9644981177       28.8389037830
  H         3.6857970956       11.1163346560       30.3504884266
  C         5.3571637095        9.7998401096       30.4464368267
  H        -4.8573499455        9.6284916791       25.4017877210
  H        -4.9644785970       11.0503174234       26.5066912282
  C        -6.6440465013        9.7413709897       26.5492971347
  S        -1.7559162232       17.6252759639       31.3533509755
  N        -2.1733216335       17.1340735018       32.8583414929
  C        -2.2699058356       15.0111245032       34.0515302345
  H        -2.0328383652       12.8848929064       34.8049499389
  C         4.5158030423        9.1032273971       12.5535847872
  N         4.4003390519        7.7663805584       12.4055287425
  O         3.7457633256        6.0164131567       13.6436267281
  H         5.1127444175        9.7549970327       31.4857085306
  H         5.9962869796       10.6381602075       30.3578982519
  C         5.8840093310        8.4839548553       30.0223401520
  H        -6.9155329394        8.6497523410       26.5189539600
  H        -6.8783278406       10.1733732521       27.4952047521
  C        -7.4608767102       10.5020653824       25.4708320628
  C        -2.5632306188       15.7680208576       35.2279812891
  S         4.9513576103       10.0622053368       11.0888042625
  C         4.2625741184        7.0145138058       11.1448675737
  H         5.3956325336        8.0691019367       29.1876884167
  H         6.8453374283        8.6713878855       29.5518774401
  C         5.9138111365        7.4210792741       31.0605532176
  H        -6.8105912922       10.4832215403       24.6607721000
  H        -7.5714638813       11.6309638796       25.6338501679
  C        -8.8479122593        9.9553162906       25.2558090625
  H        -2.1597197331       16.7442963088       35.1639320277
  C        -3.2605949782       15.4943152984       36.3655055637
  H         4.8273374894        7.4626018731       10.3524998718
  H         4.7588952375        6.0627142266       11.3173920358
  C         2.7413531254        6.8738905318       10.7387225613
  H         5.0211023135        6.8141069994       31.0578658251
  H         5.9168856961        7.8960573079       31.9968770345
  C         7.2099844488        6.7171680193       31.0090057501
  H        -9.2270700597       10.3439479345       24.3214682408
  H        -8.9030923939        8.8495802967       25.1999004823
  C        -9.7630729733       10.3058037294       26.4030959959
  S        -4.0065936414       13.9841567382       36.8490916634
  C        -3.4087297383       16.6007961011       37.3163671966
  H         2.0803304656        6.3772012756       11.4433788379
  H         2.3379555804        7.8895768351       10.6996812882
  H         2.6753796011        6.3719537143        9.8545005290
  H         7.9883158412        7.4294145865       30.7085758392
  H         7.1996007079        5.9812150750       30.2193719697
  H         7.5792310906        6.4014213972       31.9446013834
  H       -10.7605056936       10.1962719114       26.0391411008
  H        -9.6987504725       11.3951537143       26.7374088833
  H        -9.7108399521        9.5987858894       27.2884392432
  C        -4.3834096520       14.7726949480       38.3282068991
  N        -4.1117863925       16.1273264872       38.4397868417
  O        -2.9961188301       17.7614705475       37.1923621086
  S        -5.2954081120       13.9986881546       39.6944693555
  C        -4.1881203829       16.8630327499       39.6800880882
  H        -4.2292594772       17.8613160636       39.3025434476
  H        -5.0723030588       16.7625352646       40.3547794942
  C        -2.8512778205       16.5286764734       40.4196960213
  H        -2.9648580761       16.9360215645       41.3782030006
  H        -2.6568137527       15.4735063675       40.4718366970
  H        -2.0427408745       17.1171421647       39.9954193320
