352
 i =    85000, time =    85000.000, E =        24.8907305287
  H        10.3983600219        6.3952136125       32.0028889506
  C        11.4387629211        6.4812520292       32.1688807302
  H        11.5821856553        7.5512467997       32.4468827534
  C        12.3238401829        6.3353658225       30.9189932329
  C        11.7274705108        5.6302449373       33.3899861713
  C        11.7587510932        5.2583998282       29.8981832817
  H        12.5349323162        7.2344774744       30.3480660219
  H        13.3546468405        6.0325488189       31.0967754297
  H        12.1768942220        6.1399607017       34.2143427464
  H        10.8898859654        5.1183769332       33.8627913156
  H        12.3734882180        4.8088096446       33.1543366298
  C        10.7583499909        6.0029132153       28.9402315226
  H        11.3403014381        4.3800604491       30.4266985431
  H        12.6582209499        4.8919787493       29.3735904338
  C        11.1010958211        5.9947744666       27.4606238014
  H         9.7948899213        5.6128039173       29.0562941812
  H        10.5893686518        7.0493131307       29.2904837492
  C        10.1260881326        5.2356413139       26.6183165340
  H        11.9679718427        5.5135647800       27.1781200242
  H        11.0620559305        7.0774471447       27.2218257966
  C         8.9097040411        6.0599580244       26.1849247505
  H        10.6437563997        5.0047699373       25.7133523635
  H         9.7835894157        4.2880826217       27.1503632386
  C         7.8092982980        5.2890853985       25.3983597596
  H         8.2934083522        6.3156582321       27.0349712556
  H         9.1983172120        6.9744292657       25.6744734580
  C         7.4602370553        3.9547577527       26.0987262680
  C         8.2738586361        4.5395508133       24.2245258718
  C         6.5661063372        6.1781310444       25.0277547040
  C         7.7447856487        2.8349366110       25.3148971346
  C         6.8740400554        3.5586192818       27.3511304029
  C         8.2648348807        3.1844346390       24.0865302754
  C         8.8763937197        5.1731886788       23.1113807878
  H         5.9750595797        5.5423086390       24.3832182493
  H         6.7957351092        7.0373193257       24.3711675409
  C         5.5544622515        6.4666991484       26.1169518118
  S         7.1244580180        1.3421047510       26.0019870349
  C         6.7471941473        2.1613766779       27.4586127155
  H         6.7021826814        4.3564651648       28.0016810969
  C         8.6075334001        2.5186989199       22.9416762466
  H         8.8994488005        6.2709472115       23.0499095589
  C         9.2567273300        4.5273549428       21.9037929301
  H         5.7831622458        5.8672345256       26.9640130230
  H         5.6576476916        7.4201196022       26.4877772468
  C         4.1066573750        6.1901042371       25.5784630708
  C         6.2497948063        1.4587708667       28.6711871833
  C         9.1632740470        3.2139727622       21.8258545055
  H         8.4865579576        1.4343789763       22.9405810335
  C         9.5717592759        4.8559722277       20.5986185802
  H         3.9644980876        5.1644409912       25.2839917877
  H         4.0038930079        6.7004592326       24.7378088074
  C         3.0492657123        6.6071939161       26.6254528342
  C         6.2588256621        0.0712680508       28.9417789979
  C         5.7639654965        2.3228375965       29.7755633033
  C         9.4614227403        2.4515546847       20.5967525026
  C         9.7628807038        3.7383732819       19.7893833941
  S         9.8796607779        6.2445182862       19.8299553553
  H         2.0821517207        6.9536008504       26.2869944553
  H         3.4771131659        7.4757982425       27.2156820749
  C         2.8454769353        5.3926814983       27.5351481260
  N         6.7215040712       -0.8663272087       28.0015267618
  C         5.9948509615       -0.4793666781       30.1706918721
  C         5.5028677859        1.7561196190       31.0178291222
  H         5.6736441320        3.3977354257       29.5522264067
  C         8.1856109370        1.8607170212       19.9925491977
  C        10.6106588724        1.4392447694       20.6954774816
  C        10.1926099063        4.0843360572       18.4999946423
  C        10.2917166426        5.4270279312       18.3776321584
  H         2.6048754842        4.5833399487       26.9381085750
  H         3.7470649368        5.2276172636       28.1275336719
  C         1.7415092174        5.5277491081       28.5321783771
  S         6.7149645826       -2.3339773309       28.6969987834
  N         6.2509837202       -1.8364616846       30.2107078120
  C         5.6540447637        0.3138334407       31.3054332138
  H         5.1613799379        2.4059287168       31.8556225006
  H         7.8860155793        1.0253576413       20.6354050139
  H         8.4241860938        1.3253896657       19.0265665410
  C         7.0606550792        2.8468514983       19.7041005615
  H        10.9604073089        1.1448294557       19.6972527561
  H        10.4050156462        0.5422114529       21.3592253223
  C        11.8086854521        2.0598092521       21.4083378357
  H        10.2298927043        3.3515582295       17.7275867983
  C        10.6972891937        6.2253673725       17.1419403238
  H         1.2422687776        4.5244547812       28.6540563612
  H         0.9222395087        6.1168322949       28.0668677712
  C         2.1426345557        6.0968423217       29.8553347676
  C         5.4440223339       -0.4317989012       32.5512574173
  H         7.2906842411        3.4685134715       18.8519345613
  H         7.0234487299        3.5788327926       20.5237225435
  C         5.6887407301        2.2188742535       19.4059220832
  H        11.7127882021        2.0451032180       22.4941590309
  H        11.8470303112        3.1637917745       21.1369066213
  C        13.0755037435        1.5140129588       20.8938224654
  C        10.7773787795        7.6218264171       17.0884176107
  C        10.7185880616        5.5612994275       15.8470599753
  H         2.6496457485        7.1152656038       29.7601091530
  H         1.2796134488        6.4790042461       30.4001131612
  C         2.9107647924        5.2571325903       30.8690416336
  H         5.7036321486       -1.4589173362       32.4881606246
  C         5.0999383923       -0.0360799406       33.8205679904
  H         4.9243597676        2.9669029734       19.3476123658
  H         5.3760367237        1.6319647972       20.2546898830
  C         5.7492443810        1.3763549042       18.0966948674
  H        13.1682071395        0.5040122095       21.3562125959
  H        13.0501291762        1.4603294654       19.8087204420
  C        14.2717140913        2.3762670594       21.3589776997
  N        10.5922031265        8.5267782633       18.1667983679
  C        11.0723403177        8.3413560655       15.8862904448
  C        11.0849482874        6.2156902346       14.7183596355
  H        10.6096509963        4.4831096953       15.7139768705
  H         3.2307277330        5.8891779309       31.6589400400
  H         2.1537789488        4.5672701568       31.4177200296
  H         3.5237071572        4.5054087138       30.4544354912
  S         4.8617644868        1.6061999501       34.3495334847
  C         4.9392706152       -1.0417793815       34.8281574065
  H         6.0533523468        2.0965937612       17.3367578590
  H         6.4559582020        0.5928902417       18.3157610973
  C         4.3043879972        0.9125250263       17.6917826233
  H        14.0240297341        2.8536119165       22.2858050446
  H        14.4081452364        3.1859412803       20.6350916853
  C        15.5330952909        1.7157289751       21.6550936401
  S        10.6665913673       10.0015924566       17.6463498877
  N        11.0856344544        9.7412253180       16.1348585003
  C        11.3254012422        7.7005344432       14.6722430676
  H        11.0154256595        5.6218872295       13.8566111808
  C         4.4116639021        0.9332902626       35.9229823500
  N         4.4631578103       -0.4504605338       35.9732037071
  O         5.2064436112       -2.1895380267       34.6361616102
  H         4.4109824667        0.6278773816       16.6354392017
  H         3.7773405067        1.8505584700       17.8089705043
  C         3.6853830659       -0.2185805861       18.5629312757
  H        15.4862409393        0.6497362171       21.4989268794
  H        16.2625058151        2.0313799108       20.8833820472
  C        16.0245342177        2.1455177227       23.0547731098
  C        11.5362330642        8.4169099949       13.4580998866
  S         3.8472097541        1.8778849536       37.3487017137
  C         4.1837337315       -1.2235830248       37.1591289697
  H         4.4806252447       -0.9814425626       18.6274231392
  H         3.4771789043        0.1122378287       19.6009660593
  C         2.3685382052       -0.6825093133       17.9396265953
  H        15.5165901355        1.5932783707       23.8174317766
  H        15.7351220980        3.1343380899       23.3496116553
  C        17.5450492243        1.8722210979       23.1726728694
  H        11.0607563436        9.3402966957       13.4557492949
  C        12.0508158231        8.0828950820       12.2534794982
  H         3.3419749554       -0.8382008968       37.7232315329
  H         3.9636026944       -2.2522427765       36.8292262407
  C         5.3865980010       -1.3945403230       38.0687755243
  H         1.8350440862        0.2828615471       17.7164844487
  H         1.7757146880       -1.2794876413       18.6945630145
  C         2.4644405091       -1.6419298584       16.6979682607
  H        17.9866209377        1.9468640109       24.1796082870
  H        17.7812099816        0.8481056466       22.8486738927
  C        18.2696582107        2.7757975895       22.2766070990
  S        12.7861539333        6.5327531324       11.9127390995
  C        12.2373630057        9.0410010304       11.1380214605
  H         5.0521562825       -1.4315250636       39.1413209746
  H         5.7214375313       -2.3764183200       37.8473383684
  H         6.2016979522       -0.6484072205       37.9292876028
  H         2.7761222021       -1.0509898585       15.8619250390
  H         1.4397973144       -1.9364824763       16.4481198955
  H         3.1038885460       -2.5502975538       16.7775091656
  H        18.5522165811        2.3610592074       21.2681681679
  H        19.1626717404        3.0506357711       22.7626832473
  H        17.7418152459        3.6798083044       22.0793141445
  C        13.0065565608        7.1338525516       10.2770218120
  N        12.8122097811        8.4659829132       10.1045392442
  O        11.7471408393       10.1518064541       11.2600759178
  S        14.1547845370        6.4583522372        9.2481555356
  C        12.7278191206        9.1753356557        8.8837914922
  H        12.8479571238       10.2474596583        8.9734711065
  H        13.4629434953        8.7483727991        8.1444423759
  C        11.2897427271        8.9310297664        8.2952296815
  H        10.6917603208        9.8321829476        8.2104505265
  H        11.4155734516        8.5630950989        7.2079751912
  H        10.6931651466        8.1173690283        8.7377309039
  H        -3.0512919593       14.9885813924       16.3783945283
  C        -2.5899733273       13.9812184860       16.3988723165
  H        -3.4746568023       13.3423759669       16.5888118871
  C        -1.5635341758       13.8695707326       17.5715450465
  C        -2.0128734296       13.5712699022       15.0453705535
  C        -2.2058489845       13.9223142900       18.9190644662
  H        -0.9925776016       12.9514499158       17.4528304862
  H        -0.9061210485       14.6189043564       17.4319024067
  H        -1.1461941911       14.1887278464       14.8676931541
  H        -1.6187405878       12.5089801778       15.0387013978
  H        -2.7045067586       13.7195707643       14.2290027259
  C        -1.1844281666       13.4551324021       19.9482710607
  H        -3.0670739539       13.3058820828       19.0576413563
  H        -2.5428905881       14.9681421521       19.0775822596
  C        -1.5241308869       13.8754724771       21.3891722807
  H        -1.1352951891       12.3451579767       19.8592200710
  H        -0.2081073842       13.7935303040       19.7405356275
  C        -0.6461191315       13.1846089011       22.4581001426
  H        -2.5738693671       13.6824540402       21.6432814103
  H        -1.5421373669       14.9657020812       21.3173405002
  C         0.5728068068       14.0104371973       22.8709859900
  H        -1.1578207375       12.6677415853       23.2161227871
  H        -0.2408097867       12.4002985163       21.8362689749
  C         1.7029020098       13.2359983696       23.6124697947
  H         1.0158520565       14.2859549624       21.9525461473
  H         0.3948309263       15.0167900984       23.3369953822
  C         2.0537689699       11.9797557395       22.8835913616
  C         1.1682030430       12.5073170848       24.7386941130
  C         2.8538927504       14.1652949496       23.9389385184
  C         1.6319613955       10.8564590281       23.5605818309
  C         2.5801471080       11.6220782434       21.6579834246
  C         1.1528199880       11.1997393303       24.7828337629
  C         0.7101445979       13.1836396997       25.8546904943
  H         3.1016487136       14.8617647324       23.1351295089
  H         2.5692491698       14.7750865290       24.7212613879
  C         4.1111237771       13.4125471622       24.3987454005
  S         2.1051423947        9.3998346318       22.7709754464
  C         2.5807934901       10.2788964448       21.4071375680
  H         2.9330685821       12.4032939188       20.9758221038
  C         0.6273600583       10.4956220507       25.8778112779
  H         0.7951260128       14.3069425330       25.8613444151
  C         0.2299478481       12.5468420114       26.9781385591
  H         4.2925206731       12.6205296693       23.6864084242
  H         3.9189078712       12.8035914402       25.3052852410
  C         5.3162062574       14.3164585853       24.4953083910
  C         3.0102497389        9.5678744052       20.1419731572
  C         0.0512281710       11.2009053057       27.0250700477
  H         0.7951997481        9.4270457665       25.8286731824
  C        -0.3631422408       12.9732542793       28.1656318321
  H         6.0337084532       13.8933028727       25.2730356549
  H         4.9181700095       15.3364138080       24.7306816611
  C         6.0753348345       14.6240913755       23.1816703442
  C         3.0351143012        8.1841525279       19.8800689379
  C         3.4557914245       10.4394651319       19.0134652962
  C        -0.4090725224       10.5165043628       28.2377494793
  C        -0.6901110874       11.8779362721       28.9220790102
  S        -0.6387386126       14.4455823479       28.9344327911
  H         6.9024643886       15.3478183459       23.2948385014
  H         5.4450239985       15.1887351110       22.4123531595
  C         6.8226786685       13.3640383054       22.7052505961
  N         2.7091877462        7.2125707344       20.8395718151
  C         3.3162683636        7.6901227756       18.6088738137
  C         3.8597052734        9.9086000661       17.7863169817
  H         3.3856179862       11.4961612404       19.0554270535
  C         0.8125521634        9.8719714708       28.7922594421
  C        -1.5881489480        9.5045799491       28.1565243195
  C        -1.2681896312       12.2836885255       30.1277835622
  C        -1.2946035909       13.6661233957       30.2933692812
  H         7.6428390940       13.2987435689       23.3543401389
  H         6.2429919749       12.3834554913       22.7879549656
  C         7.3885934209       13.3181806698       21.3354615499
  S         2.7883648692        5.7202350142       20.1058582311
  N         2.9557374695        6.3433689379       18.5798885782
  C         3.7029067760        8.5128099196       17.4911596887
  H         3.9599077373       10.6739716142       17.0244385138
  H         1.0984113740        9.0038659029       28.2142561901
  H         0.7249495362        9.5284005997       29.7790890261
  C         2.0954824145       10.7188347571       29.0356662778
  H        -1.3122329787        8.5726257911       27.6596009943
  H        -1.7563365653        9.2326981061       29.2319644304
  C        -2.8580203306       10.2271824285       27.6752609706
  H        -1.4458130906       11.5275483466       30.9243082971
  C        -1.5800440352       14.3598488502       31.5999045572
  H         7.9836349221       12.4165710758       21.2133739440
  H         8.0454070171       14.1824198524       21.2141824283
  C         6.2213902539       13.1677384070       20.3181450533
  C         3.8453095623        7.8998851329       16.1748488640
  H         2.5002799250       11.1205237054       28.0576159389
  H         1.7814076225       11.4693869628       29.7394503240
  C         3.2174874036        9.8842182033       29.6645719036
  H        -2.6940948062       10.9464492729       26.8649655533
  H        -3.1886105470       10.7372519627       28.6229844513
  C        -3.9687640894        9.1380924204       27.3124253204
  C        -1.5807217464       15.7832640489       31.7777210002
  C        -1.9409724860       13.5642471565       32.7953554296
  H         5.6659388660       12.2750164064       20.5795290745
  H         5.5168072890       14.0016848229       20.4767356721
  C         6.8544407189       13.3112444508       18.9322119005
  H         3.5930557608        6.7935999227       16.2319357673
  C         4.1729069225        8.3400009179       14.8768929155
  H         3.5023507930        9.0704998517       29.0597823790
  H         2.8032309572        9.4904437194       30.5719653899
  C         4.4939408648       10.6247505686       29.8110179673
  H        -3.8356301375        8.4586247912       26.5065863724
  H        -4.2174405573        8.4582650657       28.1467095389
  C        -5.2989767979        9.7806676563       27.1435543669
  N        -1.4382261012       16.6849324202       30.7176894455
  C        -1.7014543795       16.3832145770       32.9950267857
  C        -2.1957826263       14.2124289142       33.9925681228
  H        -2.0036395799       12.5140012299       32.7373892809
  H         6.8353506508       14.3118335762       18.5522305626
  H         7.6862988061       12.7456303857       18.7485508119
  H         6.1125198239       12.9277413025       18.1581502015
  S         4.7338581930        9.9038032106       14.4184822257
  C         4.1066918229        7.3085807076       13.7827948767
  H         5.1358381375       10.7341255555       28.9251934855
  H         4.3280931812       11.6580593679       30.2328917911
  C         5.4455688163        9.9622594362       30.7857298731
  H        -5.3764410071       10.6076163966       27.7955837861
  H        -5.9755994514        8.9642824803       27.2887172274
  C        -5.4864442295       10.4212431785       25.7822476192
  S        -1.2091130238       18.1668035308       31.4038082939
  N        -1.5392728523       17.7562482404       32.9889769654
  C        -2.0356798209       15.6843571496       34.1948352024
  H        -2.5105816087       13.6966107547       34.8591106657
  C         4.8589854069        9.2586309595       12.7847938829
  N         4.6414056891        7.9258906246       12.7223528443
  O         3.6985538845        6.1913777946       13.9610590330
  H         4.9468659874        9.2914430917       31.4001689359
  H         5.7999071435       10.7499916861       31.4826485537
  C         6.6727154378        9.3653504203       30.0941778532
  H        -4.6343329411       11.0983979914       25.5397964902
  H        -5.5442388336        9.6632229186       24.9949588227
  C        -6.6394367705       11.5223204459       25.8496311541
  C        -2.3439550293       16.4141094185       35.3990224797
  S         5.5253970113       10.1551231706       11.3628364968
  C         4.8333790700        7.2294161286       11.4272384475
  H         7.0776103264       10.0630613339       29.3659115713
  H         7.4758529871        9.2614687096       30.8028145693
  C         6.4630167525        7.9521701086       29.4606674875
  H        -6.8692301028       11.5898592247       24.7922066801
  H        -6.2627487866       12.3737701220       26.3985561636
  C        -7.9468220894       11.0142789710       26.5637842427
  H        -2.1201317462       17.4922393295       35.4229759647
  C        -2.9259863788       16.0996999184       36.6030554441
  H         5.5866366646        7.6854778861       10.7707205169
  H         5.2710528867        6.2797094063       11.6855865788
  C         3.4863778865        7.0970214766       10.7750555639
  H         7.3853001425        7.8155538001       28.8594639921
  H         5.5702992496        7.9343129714       28.8627142662
  C         6.4881131223        6.8216898710       30.4255853928
  H        -7.6916128031       10.5929810025       27.5258265174
  H        -8.7044733644       11.7828512911       26.8705244953
  C        -8.6280339956       10.0394248362       25.6188712222
  S        -3.8230704299       14.6768460154       37.1001870525
  C        -2.7896162147       17.1738523160       37.6385621669
  H         3.4982869449        7.1354100735        9.6711829216
  H         3.0346009035        6.1370094988       11.0585465631
  H         2.8313715445        7.9197886770       11.0526983175
  H         5.4799935729        6.6302718600       30.7762729366
  H         7.1034065938        6.9577574985       31.3319138973
  H         6.9061748912        5.9792284967       29.9408282714
  H        -7.9935674717        9.1538949927       25.4116892687
  H        -8.7639326827       10.4732018693       24.6552432364
  H        -9.5993636727        9.5909012178       26.0402961091
  C        -3.8517325807       15.4144530503       38.7281056797
  N        -3.4481600209       16.7307421130       38.7617001607
  O        -2.2956050846       18.2578618734       37.4683733277
  S        -4.7903765809       14.7191243174       40.0435487938
  C        -3.6891446710       17.5189598939       39.9550994443
  H        -3.7943414817       18.5944930320       39.7641691644
  H        -4.6537728804       17.2788639294       40.3808325680
  C        -2.5184705163       17.3594086831       40.9415858226
  H        -2.7174819258       17.9144108981       41.8842248746
  H        -2.4241572547       16.3643538478       41.3108306185
  H        -1.5997344790       17.7588800931       40.4743294608
