352
 i =    96800, time =    96800.000, E =        25.1419842373
  H        10.3551241343        4.9134821825       32.0571559757
  C        10.0878828931        6.0025602963       32.0052487963
  H         9.0048657029        6.1519963505       32.0818763590
  C        10.7045546710        6.8916559224       30.9859320979
  C        10.5869036647        6.4464462554       33.4178895751
  C        11.2040673179        5.9247194470       29.8127576434
  H        10.0352348173        7.5401854449       30.5197172715
  H        11.5418216756        7.5105605413       31.2024807308
  H        10.0788604968        7.3731655266       33.6029362881
  H        10.2142585207        5.7401610359       34.1789050139
  H        11.6469201690        6.6527534224       33.4690585329
  C        10.2721925281        5.2958805873       28.8560529730
  H        11.7240550205        5.0668556356       30.2872092659
  H        12.0014692356        6.4301141705       29.2653295071
  C        10.8455885450        5.5233371511       27.4292746960
  H        10.2175833071        4.1641464420       29.0384696882
  H         9.2577579874        5.6069303546       29.0087698530
  C         9.8883387581        4.9177884493       26.3627374244
  H        11.8611112971        5.0912626067       27.2823330676
  H        10.9382617104        6.6307020712       27.2401543235
  C         8.6931470702        5.8687075592       26.0719554532
  H        10.5609426771        4.7319512548       25.5091720507
  H         9.6931367566        3.9753202904       26.7552902307
  C         7.5155856037        5.1690210531       25.3109013329
  H         8.3160991996        6.3661837106       27.0006355250
  H         9.1573655167        6.6627349926       25.5008959201
  C         7.0663149333        3.9278389144       26.1315640997
  C         7.9013681531        4.3750495549       24.1667240226
  C         6.3475122952        6.1823351482       24.9473478004
  C         7.2790084822        2.7682706504       25.3885458123
  C         6.6051492510        3.5716783036       27.3996047833
  C         7.8046644136        3.0050773588       24.1398589394
  C         8.4270433236        5.0324487518       23.0532442267
  H         5.8886066496        5.8742812161       24.0744410264
  H         6.7760447254        7.1976544297       24.6751303853
  C         5.2998381376        6.4504288482       26.0540717310
  S         6.6978072142        1.3191506899       26.1682838981
  C         6.3619045250        2.2250135435       27.5682569685
  H         6.4716191414        4.3407221488       28.1157245006
  C         8.2450150789        2.3316225416       23.0109951096
  H         8.4541593700        6.1115755180       23.0937126384
  C         8.8246716556        4.3357839103       21.9072412860
  H         5.8311731190        6.3566279181       26.9693384972
  H         4.9533118587        7.4794036086       25.9740064289
  C         4.0489461105        5.6583398443       26.0070929385
  C         5.9994551177        1.5573563811       28.8165823233
  C         8.7163929971        3.0096163328       21.8612047106
  H         8.3285447053        1.2246103812       22.9802026423
  C         9.2126956527        4.6558485178       20.6727394887
  H         4.3900902001        4.6596634214       26.2261365524
  H         3.7363674283        5.6620942609       24.9671281878
  C         2.9442678086        6.1185602442       26.9683000125
  C         6.0345359827        0.1660152357       29.1514015136
  C         5.6069070571        2.3660596435       29.9932131437
  C         9.1569995121        2.1994155756       20.6395632201
  C         9.4364790284        3.5687395610       19.9143229476
  S         9.4795170539        6.1368444301       19.9012200123
  H         2.2077990346        6.7160277701       26.5165414786
  H         3.4078049601        6.7477569753       27.7247095998
  C         2.3306446537        4.9122934391       27.6930805988
  N         6.5079035885       -0.8146189912       28.2765887555
  C         5.6512589723       -0.3490653851       30.4132723504
  C         5.2439952731        1.9286378269       31.2760861302
  H         5.5366121655        3.4213236177       29.7567905108
  C         8.0279088776        1.4020932396       19.8894694962
  C        10.4460432896        1.3884986590       20.8676091324
  C         9.9859248391        3.9827286145       18.6813145697
  C         9.8966831915        5.3240434581       18.4666943187
  H         2.0289723564        4.1547147225       26.9508494024
  H         3.0689070787        4.4788417484       28.3291093644
  C         1.1160657013        5.2238891712       28.6877703326
  S         6.3318888673       -2.2633639110       28.9700058044
  N         5.7411244066       -1.7572024767       30.4110673866
  C         5.3017457389        0.4679380296       31.5499178732
  H         4.9853687618        2.6448049022       32.0196621989
  H         7.5564839029        0.6361465962       20.4563567782
  H         8.4330784338        1.0524258291       18.9670344712
  C         6.8592424330        2.2795965493       19.4783810823
  H        10.6931755325        0.8934833197       19.8526618248
  H        10.3104302739        0.5825961321       21.5559418954
  C        11.6198135896        2.2848357463       21.2753046848
  H        10.1040297466        3.2189665704       17.9525595205
  C        10.3218877598        6.1369598876       17.2464412339
  H         0.6238491525        4.2905039982       29.0439460094
  H         0.3254517793        5.8244042170       28.3072017318
  C         1.5732798694        5.8827715564       29.9918761060
  C         5.0496351117       -0.2352791478       32.8229459016
  H         7.1292686103        3.1333496498       18.7936202399
  H         6.4195678769        2.7502489655       20.2971573983
  C         5.8955937044        1.3882873217       18.6017736241
  H        11.2549595228        3.1526067184       21.7588952800
  H        11.8974461794        2.7024204915       20.2949163167
  C        12.7842248098        1.4922864114       21.9182450361
  C        10.3401236406        7.5587277813       17.1255647829
  C        10.5922884250        5.4244784697       16.0300765936
  H         2.3243671702        6.5773196107       29.7649823544
  H         0.7256874095        6.4426125594       30.2075374061
  C         2.0387976486        4.9087709100       31.1020972741
  H         5.1311535530       -1.2853189207       32.7143621473
  C         4.7572012900        0.1588286511       34.0952225149
  H         5.7959464237        0.4697482450       19.0538872892
  H         6.3593935070        1.2723725954       17.6729375055
  C         4.6114457351        2.1307294505       18.3329344906
  H        13.0364685233        2.0114353458       22.8620742562
  H        12.3686909159        0.5006207372       22.1837675564
  C        14.0330752959        1.3558679719       21.0025527289
  N         9.9897943846        8.4171905950       18.1674070826
  C        10.5898933873        8.1600345003       15.9143185402
  C        10.9401804782        6.0191423362       14.8397436279
  H        10.5964683738        4.3357786330       15.8801866883
  H         1.2343951854        4.2283555057       31.4759688201
  H         3.0010179012        4.3333774242       30.8672233358
  H         2.3168019938        5.6307452382       31.8986858039
  S         4.4559440598        1.8763628902       34.4566582595
  C         4.5791414091       -0.7585543248       35.2589054065
  H         4.5744100976        2.8605573828       19.1911249554
  H         4.6830006610        2.7283555458       17.4000699285
  C         3.4721910278        1.2754642292       18.6234897431
  H        14.1352702326        2.3652406398       20.4290747762
  H        13.8598902317        0.4903775906       20.3824063456
  C        15.3503185999        1.1435672460       21.7897548384
  S        10.1216439533        9.9075268111       17.5309440985
  N        10.4772027209        9.5287228651       16.0233587339
  C        10.9450828544        7.4863564029       14.7501244668
  H        11.1844642198        5.4470670119       13.9784180791
  C         4.1281043269        1.2125602875       36.0903726913
  N         4.1491681225       -0.1015082937       36.3055617517
  O         4.8388970923       -1.9497943643       35.1394790342
  H         2.5371009156        1.7868435697       18.7193956278
  H         3.6941131297        0.9392328859       19.6148241596
  C         3.3476975516        0.1091107202       17.6451400599
  H        15.1419677231        0.5909905480       22.6241611250
  H        15.9917748586        0.4463607376       21.2828085483
  C        16.1562683211        2.4176670074       22.1783086624
  C        11.2466063869        8.2261387759       13.5714121475
  S         3.7811015225        2.3071225806       37.4358742965
  C         4.1701914036       -0.8170672505       37.6345840000
  H         3.4372469477        0.6363029594       16.6065797342
  H         4.2301909561       -0.4915029955       17.6083747296
  C         2.0633406321       -0.6783655129       17.8684050839
  H        15.4547497420        3.1647071615       22.5408961136
  H        16.5355112122        2.8648456484       21.1778117409
  C        17.2943065389        2.1598191432       23.0167355950
  H        11.3072304498        9.3222346748       13.7777252402
  C        11.6419645269        7.8662720043       12.2821940163
  H         3.3853484121       -0.3838468952       38.2847993796
  H         3.8010528754       -1.8050635366       37.4780195848
  C         5.5532532596       -0.7105362598       38.2232535209
  H         1.5284980151       -0.9833970424       16.9835940022
  H         1.2039838775       -0.0923433079       18.3612144671
  C         2.1733497722       -1.9354683859       18.7247082375
  H        17.4575777872        2.9794439614       23.6710171423
  H        17.0523688136        1.3571480188       23.7591763544
  C        18.6644070245        2.0196619010       22.4049987047
  S        12.0617046227        6.2947788662       11.7623967117
  C        11.9216965782        8.9577334856       11.3706212382
  H         5.3377369564       -0.5363857339       39.3190050487
  H         6.2641892566       -1.6236378578       38.2277321606
  H         6.1814619410        0.2275064510       37.9288700667
  H         3.1435450706       -2.0196557928       18.9933762553
  H         1.7679220641       -2.8065781186       18.2000000923
  H         1.5697547008       -1.6952495982       19.5773552887
  H        19.3434737053        1.6152479324       23.1258042267
  H        18.8954862056        3.0305957221       22.1236854377
  H        18.6473888092        1.4457698009       21.4102599914
  C        12.4545088635        7.0831022289       10.1889361439
  N        12.4752543452        8.4881552168       10.2191581618
  O        11.7807078150       10.1874647895       11.6520550470
  S        13.2928138059        6.2510468239        8.8737725798
  C        12.7890931931        9.3890392754        9.1184611413
  H        13.0274476143       10.3712248468        9.5309786506
  H        13.6620575348        8.8085480549        8.6794353549
  C        11.6801853350        9.4931224950        8.1904217946
  H        11.5702871936        8.6176239606        7.5324070448
  H        10.7511796181        9.5746171153        8.7450814199
  H        11.7821982768       10.4015599962        7.6415499834
  H        -1.7801839870       12.2046080818       16.9118772601
  C        -2.1694659446       13.1782725107       16.7219801824
  H        -1.2452325881       13.6863298574       16.7468472609
  C        -3.1544657854       13.7729728710       17.7311858219
  C        -2.6966853894       13.0763587917       15.3328385090
  C        -3.0252888478       13.1717178993       19.1347531484
  H        -3.0331153137       14.8757167525       17.7120095954
  H        -4.1865474362       13.6470192124       17.3410355681
  H        -3.3205949287       12.1741213452       15.3604745716
  H        -3.2732235250       13.9140756227       14.9677662884
  H        -1.8279127627       12.9158645838       14.6890797168
  C        -1.6349265773       13.4975160939       19.7740784618
  H        -3.3109089929       12.2083867113       19.2400001586
  H        -3.7939382138       13.7334257155       19.7000139115
  C        -1.7617918354       13.3275799235       21.3658246524
  H        -0.7970406480       12.8420075069       19.4179372837
  H        -1.3982655059       14.5302995885       19.5937646841
  C        -0.7182365523       12.6130914344       22.2063704405
  H        -2.7861503804       12.8693816904       21.5026897563
  H        -1.7730568953       14.3167645212       21.7152869488
  C         0.3579870973       13.5710961418       22.6822963754
  H        -1.1789132654       12.2360386834       23.1619357988
  H        -0.3681961791       11.7745856168       21.6756793858
  C         1.4850514357       12.9604290634       23.4964122131
  H         0.7025774927       14.1166715980       21.8090091061
  H        -0.1247335636       14.3750957743       23.2754039909
  C         1.8804606841       11.5634711862       22.8208272271
  C         1.0120094613       12.2001058710       24.7064336405
  C         2.6796232543       13.8510095787       23.8689860150
  C         1.6493010755       10.4327099107       23.6143796371
  C         2.3276849617       11.1500091468       21.5819921945
  C         1.1587496597       10.8541928924       24.8312906641
  C         0.3365657653       12.8439705390       25.7822843230
  H         2.4987483476       14.7788252729       24.4345694424
  H         3.3068259018       13.3629359240       24.6469743855
  C         3.5403451643       14.3445430698       22.7116744701
  S         2.0382062109        8.9719236389       22.7195296158
  C         2.3941565960        9.8163998467       21.3442618870
  H         2.5871064182       11.9178864945       20.8500648418
  C         0.5670145278       10.1963958629       25.9065665888
  H         0.4167688135       13.9364403016       25.7722958230
  C        -0.1777703680       12.2481128942       26.9013385611
  H         3.2843061933       15.3337940708       22.5211214260
  H         3.2985796295       13.7980426209       21.7585603826
  C         4.9987331523       14.2550749794       22.9820054751
  C         2.6932970924        9.1800495892       20.0053883257
  C        -0.1086962313       10.8953482117       26.9441304866
  H         0.8328011176        9.0959512737       26.0039937348
  C        -0.7245074860       12.6021955933       28.0702445140
  H         5.2098591151       13.3704040706       23.5677566279
  H         5.2657433017       15.0624633404       23.6911876359
  C         6.0058569174       14.2852606182       21.7502215580
  C         2.6106861971        7.8058100348       19.7465072704
  C         3.0445521100       10.0536194247       18.8294068424
  C        -0.5337328934       10.1973436006       28.2168174838
  C        -0.8244930862       11.5431666106       28.9475995549
  S        -1.1336919018       14.0715210708       28.8043872928
  H         6.8433266226       14.8795669086       22.1150288732
  H         5.5057563808       14.9723837824       21.0362145492
  C         6.2646740485       12.9391256958       21.1706903656
  N         2.3890240114        6.8420904802       20.7704663817
  C         2.9861728235        7.2637506104       18.5590160766
  C         3.2412554820        9.5565974661       17.5802184253
  H         3.1361204071       11.1328891210       18.9465690003
  C         0.6502677608        9.4940403756       28.8995690875
  C        -1.8816580278        9.3594649664       27.9354267315
  C        -1.3764562721       11.9425523469       30.2194833327
  C        -1.4194977233       13.2980099410       30.3086906161
  H         7.1954508857       12.5651587526       21.5115125082
  H         5.5362894750       12.2003373024       21.5682235704
  C         6.1858837922       12.9436213724       19.6554594271
  S         2.4938728000        5.3459520919       20.0706816005
  N         2.8897826136        5.8565657826       18.5695505875
  C         3.2819240728        8.0418386589       17.4012368936
  H         3.5116242498       10.1952052488       16.7046015433
  H         1.0131747060        8.5969208030       28.3917986083
  H         0.2922454846        9.1245357606       29.8754385619
  C         1.8419129393       10.4377343160       29.0688007033
  H        -1.7394362271        8.8484620416       27.0038841189
  H        -2.1627950710        8.7130618721       28.7801923004
  C        -3.0585664231       10.3007827660       27.6669454340
  H        -1.5903408072       11.2268584055       31.0557237697
  C        -1.5667871425       14.0856010474       31.6100048453
  H         5.5231578178       13.7218975884       19.1565152081
  H         5.8725135264       11.9530529912       19.4289372988
  C         7.5045895243       13.2346480722       19.0038108448
  C         3.6314843288        7.3110273532       16.2136409053
  H         2.1048953817       11.0123033953       28.1577051104
  H         1.5127835893       11.0911121636       29.7908676308
  C         3.1212379692        9.7908128028       29.6070042345
  H        -2.7203758672       10.9475154076       26.7759533984
  H        -3.2922682453       11.0100373339       28.4409919589
  C        -4.2982690357        9.5287841445       27.3051996023
  C        -1.5385246466       15.5222314206       31.7778093081
  C        -1.7918947610       13.3035525621       32.8619949822
  H         7.6334721252       14.3371197096       19.0298482593
  H         8.2996054314       12.7241987018       19.4634110926
  C         7.3796393908       12.9397370446       17.5046951090
  H         3.5038812327        6.2528988107       16.3435963886
  C         3.9646399310        7.6733354435       14.9270085899
  H         3.5040491966        9.0421047056       28.9424657399
  H         2.9056644569        9.1597407200       30.4926662848
  C         4.2638712944       10.6774284427       30.0737873927
  H        -4.0813034093        8.8752778082       26.4645991254
  H        -4.5698619479        8.7790644170       28.0898155788
  C        -5.4822991070       10.4575467644       27.1505996166
  N        -1.3974929132       16.4510696418       30.7101939821
  C        -1.7453327899       16.1168430809       32.9638760164
  C        -1.9483911682       13.9553096408       34.0749521005
  H        -1.8274550286       12.2396663223       32.8422498809
  H         6.6346132903       13.6131308410       17.1580422087
  H         8.3405750229       13.1390104892       16.9727416174
  H         7.0750483472       11.8979814901       17.2765510290
  S         4.4291668597        9.2296995774       14.3550958893
  C         3.9564315731        6.6354041495       13.8715787660
  H         4.7054845611       10.9425933153       29.1969348482
  H         3.8455553716       11.5964170127       30.5862571454
  C         5.3269884553        9.9621760040       30.9132161817
  H        -5.2839758778       11.2128814214       26.3602255224
  H        -5.5756558260       11.0709955629       28.0260219141
  C        -6.8353692418        9.8027352026       26.8585811400
  S        -1.4642761910       17.9467347184       31.3132399133
  N        -1.7763580093       17.5225769415       32.8123782911
  C        -2.1391130342       15.4339744535       34.1492207773
  H        -2.2130743215       13.4054456822       34.9900722301
  C         4.4981072272        8.4410270062       12.7006828350
  N         4.3562554087        7.1065821847       12.7123996423
  O         3.8187674310        5.4516333848       14.1453335288
  H         4.8777977227        9.3600600298       31.7295748705
  H         5.7903069442       10.7374162824       31.4760567545
  C         6.5185003196        9.2842943983       30.1920275495
  H        -6.7068610633        9.1969667531       26.0085535533
  H        -7.1272051741        9.2093419166       27.7313438138
  C        -8.0433657312       10.7236047199       26.5139780668
  C        -2.5396565297       16.2120428893       35.3086263050
  S         5.1062587631        9.2664562638       11.3742681890
  C         4.3204664541        6.3489576339       11.4951981829
  H         7.0058688319        9.9528580671       29.4729476085
  H         7.3623654206        9.1135811908       30.8608298776
  C         6.2356021469        7.8548089622       29.5577823794
  H        -7.7624059478       11.5303110302       25.8117221334
  H        -8.3023263558       11.2736499741       27.4609642214
  C        -9.3019247027        9.9860026467       25.9596887361
  H        -2.4439712454       17.2811315190       35.1801922502
  C        -3.0319499291       15.8769714378       36.5929376970
  H         5.2512195454        6.5769404622       10.9398778721
  H         4.4382280125        5.2710477592       11.7375567680
  C         3.0450151682        6.4459111254       10.5723666842
  H         7.0160892686        7.5516157102       28.8724987444
  H         5.3092735437        8.0227093825       28.9548474817
  C         6.1527502144        6.6697405813       30.4893240714
  H        -9.4710281498        9.1347934223       26.5933387902
  H       -10.1505511138       10.6719895826       26.1646237562
  C        -9.2411687969        9.5373259797       24.4849107561
  S        -3.5576524645       14.3245472156       37.1356549543
  C        -3.1418873606       16.9520131485       37.5797169616
  H         2.2655810462        6.5026329598       11.2987923905
  H         3.0472483546        7.3565050051       10.0267793072
  H         3.0843700870        5.5411051714        9.9386057854
  H         6.1484385063        5.7759898410       29.9221300894
  H         5.2269785473        6.7599410113       31.0630105584
  H         6.9362329750        6.6770040620       31.2223466414
  H        -8.2894987710        8.9835988075       24.3049527671
  H        -9.3141781347       10.4268965097       23.7575978624
  H       -10.0181710240        8.8795828672       24.3595874172
  C        -3.9113879828       15.1114698986       38.7032364082
  N        -3.6152517561       16.4493775482       38.7056735257
  O        -2.6823283817       18.0924819319       37.4085020298
  S        -4.2947747877       14.2537977775       40.2291585205
  C        -3.5971551569       17.2636945678       39.9581546196
  H        -3.9875483317       18.2603953352       39.7528664134
  H        -4.4113914893       16.9797126805       40.6716569550
  C        -2.1707956856       17.2294345098       40.6022236188
  H        -2.0055101815       16.3312380306       41.2097833130
  H        -1.3200980964       17.3272666587       39.9136035357
  H        -1.9363085826       18.1382604011       41.2165080165
