352
 i =    88700, time =    88700.000, E =        25.2719244573
  H        10.1501497475        6.9615045268       31.2631074451
  C        10.9511163161        6.2831887421       31.6593502923
  H        11.6554405494        7.0599082809       31.9772824726
  C        11.5069724975        5.5604779526       30.3572426848
  C        10.4580870235        5.3893893739       32.8089636490
  C        10.5163425015        4.6185597847       29.6603423943
  H        11.7845765261        6.2841660599       29.6334769648
  H        12.4288330223        5.0727502659       30.5331165113
  H         9.4134404762        5.4203821815       32.7244865902
  H        10.8084502335        4.3360916667       32.7390922447
  H        10.7422236694        5.6875013563       33.8390853245
  C         9.5678554361        5.2971351355       28.6876574651
  H         9.8909104787        4.1696855893       30.4298477764
  H        11.1329643480        3.8234064056       29.1672717794
  C        10.1392118264        5.6564051003       27.2427945734
  H         8.7396184542        4.4928583273       28.5850237789
  H         9.1685835774        6.1348153807       29.1903320844
  C         9.2611460881        4.9123340837       26.1968827011
  H        11.2840692726        5.5198228352       27.2250149878
  H         9.8245136987        6.6946109685       27.0543101011
  C         8.0025161621        5.7066587848       25.9220310071
  H         9.7927353099        4.7774311656       25.2603769703
  H         9.0201931871        3.8800986721       26.5858328470
  C         6.9286864340        4.9858562032       25.0308163071
  H         7.5809224770        6.1079410840       26.8280045167
  H         8.2857188055        6.6728954807       25.4323237408
  C         6.6263234930        3.5821439327       25.7400655694
  C         7.4763341193        4.2293933747       23.9138056038
  C         5.6420763271        5.8384804513       24.6701225071
  C         6.8766735599        2.4844157531       24.9333775673
  C         6.2094759735        3.2457161796       27.0350025632
  C         7.3134416804        2.8738332398       23.7286327351
  C         8.1138872716        4.9253383246       22.9329492055
  H         5.0160400084        5.0048054838       24.2656100090
  H         5.9503834239        6.6114694555       23.9146590082
  C         4.8230038180        6.4446859362       25.7554349633
  S         6.6864910972        1.0523656595       25.8069313907
  C         6.0978535177        1.8986934454       27.2188062298
  H         5.9530724363        4.0391546254       27.7459968934
  C         7.8459226020        2.2740893083       22.6506074859
  H         8.1814976065        5.9897468452       23.0653986762
  C         8.4979498962        4.3052079071       21.7468286811
  H         4.9143762019        5.8253137187       26.6474391508
  H         5.2955285666        7.4353709581       25.9920321788
  C         3.3261276223        6.5043657187       25.4528037401
  C         5.5628313513        1.2696358987       28.5073981005
  C         8.4668471037        2.9820176656       21.5875055162
  H         7.8707950467        1.1321629423       22.6945817889
  C         8.9805316548        4.7677696351       20.6052193568
  H         3.1102045610        5.4981468061       25.1504596104
  H         3.1386156068        7.3047882569       24.6634601614
  C         2.4570900358        6.7206594689       26.6800088139
  C         5.5631282593       -0.1371220885       28.8016566688
  C         5.1015378835        2.1448343781       29.6257636551
  C         8.9783504594        2.3382038210       20.3716622345
  C         9.1638013802        3.7014995907       19.7019590824
  S         9.3380853454        6.3001192833       19.8843482300
  H         1.4374804412        7.2058933746       26.4930622918
  H         2.9841621195        7.2986965737       27.3449555670
  C         2.2947918735        5.3956823175       27.5157891043
  N         5.9080536711       -1.0901057033       27.8766761959
  C         5.2702019823       -0.5755365551       30.0731787377
  C         4.8440499184        1.6514726362       30.8764278571
  H         4.9243525729        3.2155400977       29.5367856237
  C         7.8166244174        1.4802390087       19.7301558736
  C        10.2429915323        1.5381736347       20.6212690955
  C         9.6013233243        4.1734788532       18.4355418453
  C         9.6001111958        5.5315833263       18.3549512185
  H         2.2511228976        4.6425007429       26.7557287322
  H         3.2053978526        5.1472357093       28.0996311459
  C         1.0501015028        5.4415480717       28.4979589124
  S         5.9440479264       -2.4957471802       28.6923642398
  N         5.4411691193       -1.9533975322       30.1472045764
  C         5.0617373748        0.1995882484       31.2129068074
  H         4.7075540539        2.3978395574       31.6274610208
  H         7.7312036325        0.6896360516       20.4220815312
  H         8.0343552434        0.9835840552       18.7909111343
  C         6.4453345513        2.1651096336       19.5679840980
  H        10.3411449416        0.9250425364       19.7418203236
  H         9.9673169085        0.7065313298       21.3157718886
  C        11.4855047157        2.3400533663       20.9167941900
  H         9.8371034988        3.4721768722       17.6461099603
  C         9.9838927466        6.3468800506       17.1628787682
  H         0.9492920279        4.4002100461       28.7337685793
  H         0.1902708267        5.8171994488       27.9993033162
  C         1.3716266483        6.2570216684       29.7068656770
  C         4.9344328340       -0.4256154129       32.5058850680
  H         6.5398417294        3.0704922204       18.9123542446
  H         6.2123156836        2.5784637895       20.5892237528
  C         5.3427923130        1.2766324050       19.0785994033
  H        11.1370041811        3.0883801091       21.5895753771
  H        11.8743072672        2.7157404349       19.9697923250
  C        12.6281148920        1.7502754369       21.7025975209
  C        10.1023615278        7.7078613584       16.9910251425
  C        10.1449631388        5.4943536446       15.9087076512
  H         2.1221043224        7.0087437877       29.4885201093
  H         0.4346667058        6.6600787692       30.0510743377
  C         2.0660410852        5.4008061448       30.7724243548
  H         5.1237201638       -1.4788208171       32.4951622874
  C         4.6932655953        0.0618821543       33.7814284002
  H         4.9593020377        0.6649754838       19.8896937006
  H         5.7660477822        0.4887879032       18.4509844806
  C         4.2360205610        2.0851877477       18.2970214603
  H        12.9783005261        2.4547573371       22.4814977569
  H        12.2504712240        0.8277898557       22.1329980127
  C        13.7768467846        1.3414090844       20.7267223954
  N         9.8581135692        8.6684856164       18.0099256530
  C        10.4939701383        8.2628605882       15.8172301300
  C        10.5059232891        6.0630148432       14.7255834262
  H        10.0963723207        4.4635072882       15.9504265744
  H         2.2701574902        5.9679330331       31.6398130116
  H         1.3569547190        4.6806593553       31.0453335513
  H         3.0070708292        5.1122571972       30.2920766141
  S         4.1639466243        1.6407259621       34.1078177279
  C         4.9101292751       -0.8812196873       34.9234758084
  H         4.3142412370        3.2422515039       18.3383116179
  H         4.0623605486        1.8150331200       17.2876657302
  C         2.8910684643        1.8047148014       18.8855559922
  H        13.8759308333        2.2106324926       20.0749081655
  H        13.4039814183        0.3931904977       20.1660515151
  C        15.0799810274        1.0859535958       21.4187130599
  S        10.0061166985       10.1322317547       17.3364107657
  N        10.5064493220        9.6486521885       15.8893190467
  C        10.7418625929        7.5225427713       14.6671154509
  H        10.4983716502        5.5119824668       13.8140860013
  C         4.1738302972        1.0894694349       35.7610488020
  N         4.4860540651       -0.2433300616       36.0238860420
  O         5.2156581925       -2.0548743660       34.9148097092
  H         2.1775869341        2.6122018576       18.8043934203
  H         2.9281585222        1.6105584382       19.9652687191
  C         2.2077917963        0.7354050419       18.1461120379
  H        14.8927820877        0.4103731079       22.2783275735
  H        15.7202893558        0.5794672067       20.7775001108
  C        15.7504474686        2.4209841333       21.7905834249
  C        11.0859093701        8.2477597689       13.5148748348
  S         3.5853096556        2.0478325617       37.1545317701
  C         4.2829329844       -0.9424011250       37.3619618152
  H         1.3389635844        0.3605344871       18.7675444570
  H         1.9076751885        1.3095804967       17.2369386308
  C         2.9001257903       -0.6015315792       17.9873189924
  H        15.1494556195        3.3385024097       21.6329897689
  H        16.6112170990        2.5131054529       21.0985882427
  C        16.2448608997        2.3173382723       23.2772576456
  H        11.0848913234        9.3241535106       13.5646929750
  C        11.5119612214        7.8075259931       12.2629134019
  H         3.7789290846       -0.3200000792       38.0738415309
  H         3.9266254075       -1.9716353354       37.4140239101
  C         5.6458014553       -1.1128071243       37.9792204429
  H         3.3289770690       -0.8447620531       18.9445593557
  H         3.9020585097       -0.5593580054       17.5373238520
  C         1.9264270286       -1.6234092273       17.4497491120
  H        16.3916834136        3.3457638642       23.5831798418
  H        15.3718631700        1.8955528081       23.8077010590
  C        17.4896188778        1.4248703995       23.4089031292
  S        12.0147598575        6.1946950739       11.8522488608
  C        11.6973517882        8.8002685823       11.1962185628
  H         5.5630786469       -1.0004467289       39.0342190042
  H         6.1470682565       -2.0925195863       37.7427298138
  H         6.2402332004       -0.3497105236       37.5026890024
  H         1.6178208736       -2.2829117075       18.2305129462
  H         2.2838171394       -2.1019224331       16.5601284488
  H         1.0080994605       -1.2094362597       17.0566062924
  H        18.2773732686        1.9185104526       22.8391075485
  H        17.3504346027        0.4854450065       22.9611576906
  H        17.8213636260        1.2646676818       24.4679982567
  C        12.3167906620        6.8284534403       10.1644979525
  N        12.2169602061        8.1994864994       10.1370759052
  O        11.4038663243        9.9741177863       11.2762789860
  S        13.2096119179        6.0385877230        8.8529110861
  C        12.4240509148        9.0370235394        8.9329230307
  H        12.7480967918       10.0772138169        9.2055946877
  H        13.3562083991        8.7652936149        8.3461171038
  C        11.2843412176        8.9799402546        7.8939805681
  H        11.0184670843        9.9745412938        7.4902800217
  H        11.5771698957        8.3340114536        7.0966583299
  H        10.3290148286        8.6237453268        8.3459003168
  H        -4.0725266258       14.5018677927       16.4820635327
  C        -3.5634407907       13.6282428675       16.3081949503
  H        -4.2023290524       12.8111590908       16.5372202707
  C        -2.3889520791       13.5317852052       17.2745818637
  C        -3.2218290578       13.3547375930       14.8240495492
  C        -2.6966834714       13.8860859836       18.7376720743
  H        -1.9501073307       12.5914344643       17.2011572010
  H        -1.6626729369       14.1892779423       16.8565148510
  H        -4.1617786557       13.1718399680       14.2820714384
  H        -2.5766410428       14.0947628547       14.4228782509
  H        -2.6715224282       12.4380161290       14.7084938285
  C        -2.6871932827       12.7527357371       19.7871164699
  H        -3.6987711407       14.3848163129       18.7879454441
  H        -1.9052072458       14.5644143124       18.9920737779
  C        -2.8621897221       13.2182990861       21.2415275410
  H        -3.6428732104       12.2507654675       19.6221916163
  H        -1.8305368598       12.0552543773       19.6343969641
  C        -1.8491509383       12.6369049644       22.2188855203
  H        -3.8046672876       12.8383492657       21.5670588148
  H        -2.7991360025       14.3068678335       21.3594018906
  C        -0.6513854569       13.5502520720       22.5011478037
  H        -2.3759877921       12.3829190513       23.1492158972
  H        -1.5931458206       11.6443032577       21.7967715530
  C         0.6367013121       12.9001633402       23.1751866291
  H        -0.3522520314       13.9351084251       21.5359230905
  H        -0.8240776717       14.4302732813       23.0836960813
  C         1.1247274941       11.5797073956       22.5810545715
  C         0.2736379800       12.0142507876       24.3540650713
  C         1.7938011055       13.9208171399       23.3883906342
  C         1.1975054968       10.4596258843       23.4290148324
  C         1.5160405254       11.2140360740       21.3238099881
  C         0.5339011318       10.7082066056       24.5310756549
  C        -0.4370419829       12.6769973783       25.3788469883
  H         1.7752543676       14.6265136594       22.5656468181
  H         1.4270623399       14.4276399781       24.2383559224
  C         3.1931811599       13.3161361210       23.7635041738
  S         1.8791665106        9.0194582134       22.7422079028
  C         1.9803409717        9.9211406126       21.2352416732
  H         1.3619981599       11.9308180092       20.5392290736
  C         0.0572201331       10.0967244429       25.7052821761
  H        -0.5678862458       13.7435642130       25.3144152833
  C        -0.7132305250       12.0764181906       26.5745747339
  H         3.6070871649       12.5261938373       23.1289513731
  H         3.1580193246       12.8753038559       24.7559394195
  C         4.2735641209       14.3736337986       23.8551212190
  C         2.4061317119        9.3412323518       19.8450023038
  C        -0.4871088351       10.7806429960       26.8366605066
  H         0.1630459545        9.0840591764       26.0540914705
  C        -1.1699822334       12.5028933034       27.8079237254
  H         5.0410993560       14.0543936016       24.5881994148
  H         3.7379801081       15.3345719094       24.0716693369
  C         4.9966481350       14.5247864828       22.5665391560
  C         2.3378498677        7.9709280561       19.5632059710
  C         2.8559122449       10.1984930161       18.6984637969
  C        -0.9103762378       10.0855997427       28.1037675878
  C        -1.2735445912       11.4723116711       28.7058606027
  S        -1.3652459894       13.9484245758       28.6208843421
  H         5.5166211547       15.5075292537       22.5396015044
  H         4.1249352897       14.6390647841       21.8524287034
  C         6.0253005983       13.4326745853       22.3238106303
  N         1.8559738489        6.9586206820       20.4593525531
  C         2.6452568745        7.4414693175       18.3468618347
  C         3.2046914557        9.6082515270       17.5083558490
  H         2.8908036444       11.2340697347       18.8177766819
  C         0.3047302123        9.4285605434       28.9068736502
  C        -2.2108075388        9.1850721121       27.8870047113
  C        -1.6551876760       11.7784369549       29.9918727356
  C        -1.6342466614       13.1285019662       30.1622501142
  H         6.8260641478       13.6345871665       22.9939716766
  H         5.5652352647       12.4318984453       22.4384710421
  C         6.9542042710       13.5810814755       21.1151302671
  S         1.7828231827        5.5412834235       19.6256049366
  N         2.3835896949        6.0488811611       18.2389845238
  C         3.1520033003        8.1678125493       17.2824914839
  H         3.4559106792       10.3373459888       16.7199591457
  H         0.8179272770        8.6545042484       28.2902954167
  H        -0.0781776137        8.8790552926       29.7152057888
  C         1.4549120761       10.3323271470       29.3008438204
  H        -1.8890916025        8.3436838326       27.2871465351
  H        -2.5502368685        8.7036983843       28.8477690726
  C        -3.4100385194        9.9511618011       27.3508868023
  H        -1.7564755628       11.0643883218       30.7641068569
  C        -1.8153745858       13.7886409930       31.4534633241
  H         7.7788139156       12.8360137204       21.1165286751
  H         7.3903810237       14.5405360679       21.3107309764
  C         6.2355505016       13.5671246030       19.8228058520
  C         3.4471294191        7.5285127368       16.0308780811
  H         1.6407641511       10.9769317079       28.4383409592
  H         1.0847303165       10.9556106680       30.1491663149
  C         2.7346004444        9.6165021164       29.7277549042
  H        -3.2449735865       10.6110636493       26.4851309409
  H        -3.7905926387       10.6198231160       28.1374340546
  C        -4.5876645572        8.9329749336       26.9668122860
  C        -1.8471416967       15.1935958073       31.6505967065
  C        -2.0776276888       12.9449045625       32.7142594704
  H         5.5337656733       12.7460100882       19.8707671990
  H         5.4973479829       14.3819342241       19.7774582313
  C         7.1837863391       13.5109983489       18.6489020564
  H         3.4477900878        6.4715951654       15.9582256952
  C         3.7561409744        7.8870900023       14.7671310525
  H         2.9959725962        9.0177025476       28.8761183784
  H         2.4463178152        8.9895950011       30.5881848664
  C         3.9034607832       10.4932193566       30.1238675029
  H        -4.4358608092        8.4795401772       25.9826144328
  H        -4.6466521962        8.0786142618       27.6939937415
  C        -5.9622372849        9.6365289641       26.9442737102
  N        -1.6102554510       16.1004548659       30.6048914648
  C        -2.0904985419       15.8230029407       32.8546724867
  C        -2.4358163082       13.6236156882       33.8901541170
  H        -2.1656886118       11.8743854474       32.6238476842
  H         6.5945872578       13.5451853190       17.6989916929
  H         7.8335212375       14.3993422039       18.5533171730
  H         7.7562616691       12.5637392313       18.4818597948
  S         4.0171473262        9.5033160175       14.2720509949
  C         3.9066148334        6.8726923190       13.6860444006
  H         4.3053967949       11.0340697814       29.1850802466
  H         3.5983885937       11.1396088040       30.9484059755
  C         5.0492446460        9.6851785361       30.7530842090
  H        -6.0990979197       10.2342687333       27.8305042727
  H        -6.6463570987        8.8310740384       27.1151042743
  C        -6.2953734377       10.4447206356       25.7387618020
  S        -1.6393487502       17.5904270331       31.1803960072
  N        -1.9931173768       17.1977513259       32.7111894040
  C        -2.3569030007       15.1259427160       34.0586603009
  H        -2.8083431245       12.9953184778       34.7079978678
  C         4.3994324818        8.7820933443       12.6871679177
  N         4.1596720865        7.4807434815       12.5601067679
  O         3.7566386805        5.6499566733       13.8432594263
  H         4.5880884759        8.8479305018       31.1980799569
  H         5.4072369927       10.3238856673       31.5833124095
  C         6.1126501483        9.1122632529       29.7649438682
  H        -5.5279509638       11.2175336437       25.5888782693
  H        -6.3361154237        9.8367949731       24.8716256182
  C        -7.6704234029       11.0012426731       25.8101976234
  C        -2.6854138630       15.9322684851       35.2067547347
  S         4.5549431753        9.6610641120       11.1225362540
  C         4.3067005670        6.7684930840       11.3031926254
  H         6.0292818318        9.5856685140       28.7276027886
  H         7.0483541811        9.5260957530       30.0656349311
  C         6.0885502446        7.5821151687       29.5557190380
  H        -8.2034495175       10.9202353532       24.8622210558
  H        -7.6119277249       12.1280375108       25.8356660470
  C        -8.5981838995       10.3183214371       26.8975279034
  H        -2.5124975029       16.9931773669       35.1946272869
  C        -3.0852351837       15.6298631061       36.4555792851
  H         5.2154515614        7.0209094366       10.8151245337
  H         4.5269373821        5.7006379488       11.5647880289
  C         3.0714876404        6.8916122527       10.4655633751
  H         7.1236601437        7.2955447003       29.0823655454
  H         5.3659884794        7.2422550671       28.8358562360
  C         6.0008689429        6.7542400201       30.8904761400
  H        -8.6136433221        9.2265589932       26.7437911193
  H        -8.3169188320       10.6214585650       27.8944990700
  C       -10.0816023456       10.6089419568       26.5603100776
  S        -3.6261011601       14.1431505912       37.1111153162
  C        -3.1157873484       16.7844522396       37.4224307543
  H         2.5964003592        5.8872093810       10.4506590662
  H         2.3824936100        7.6678620899       10.8948086042
  H         3.2201465224        7.1245705562        9.4971955520
  H         6.3525464872        5.7141440126       30.7232729330
  H         5.0698615213        6.7826150226       31.4846211469
  H         6.6646007719        7.1855158591       31.6279712182
  H       -10.2068649857       11.6703038184       26.9824255688
  H       -10.7838020252        9.8514531159       26.8557091429
  H       -10.2969726935       10.5828509793       25.5497190036
  C        -4.0812712224       15.0806661169       38.5700247229
  N        -3.8349651813       16.4122777662       38.4528820099
  O        -2.7913651545       17.9432925977       37.1619383147
  S        -4.9257344583       14.6244636792       40.0536932242
  C        -3.9865608188       17.3977930688       39.5496520105
  H        -4.0994642399       18.3615358165       39.0824059820
  H        -4.8358182603       17.2086738613       40.1749222550
  C        -2.7816220155       17.2775321166       40.4716898006
  H        -2.2129275310       18.2316781067       40.5355315321
  H        -3.0688462050       17.0732095223       41.5375042484
  H        -2.1177743360       16.4610455974       40.1272407526
