352
 i =    38600, time =    38600.000, E =        25.0119928295
  H        12.1423079788        6.3429208619       32.3460049827
  C        11.8488959217        5.3371295637       32.4797146184
  H        12.5729784905        4.7135232788       32.1549289778
  C        10.6838950929        5.1198352751       31.4895194327
  C        11.5102387380        4.9905578795       33.9168992916
  C        11.0402475270        5.5409347528       29.9821855922
  H        10.4457234678        4.0167382436       31.3924054907
  H         9.7898816356        5.6415833653       31.7508756521
  H        10.4614802568        4.8088987358       33.9743481524
  H        12.0530273597        4.1313991717       34.2761442689
  H        11.6681529313        5.8030050575       34.5609822289
  C         9.9077320806        5.3192157812       28.9459972340
  H        12.0153364744        5.0489389983       29.6868237713
  H        11.2736851426        6.6217710818       30.1013843902
  C        10.4718306478        5.7227193550       27.5189416101
  H         9.4644164830        4.3131557832       28.9923258641
  H         9.0675045516        5.9243558686       29.1679155958
  C         9.7385802889        5.0431104072       26.4119285051
  H        11.5258911501        5.5558068599       27.3933386403
  H        10.4514037138        6.7372340152       27.3915201369
  C         8.4975623653        5.7717823907       25.9746762041
  H        10.4240451765        4.9043958112       25.5369194531
  H         9.6207728921        3.9650795262       26.7441506973
  C         7.3507953099        4.9818922811       25.2734291739
  H         8.0028284125        6.1824863306       26.8965843095
  H         8.7679436354        6.5569752062       25.3629014773
  C         7.0771967131        3.6670194925       25.9048862190
  C         7.7504097397        4.3234977478       23.9503665866
  C         6.0540287750        5.8418315709       25.0534240722
  C         7.2311082641        2.5880688854       25.0391865619
  C         6.6797109316        3.2350517613       27.1167738367
  C         7.7525351365        3.0178293043       23.8863712962
  C         8.0799916560        5.0116302206       22.7802434197
  H         6.3162218156        6.7820415567       24.5994986274
  H         5.7597602749        6.1356668753       26.0350381811
  C         4.7919990828        5.1704774141       24.4992699030
  S         6.6505915543        1.1033872558       25.6877042263
  C         6.3916434673        1.8865092717       27.1808500919
  H         6.5759896533        3.9580009595       27.9205413172
  C         8.0701884875        2.3626742026       22.7133552741
  H         7.9367338669        6.0466898597       22.7856183434
  C         8.4826381044        4.3753036863       21.6561440689
  H         5.0834607184        4.7558416966       23.5424183466
  H         4.5571326448        4.2498897433       25.0201957891
  C         3.6413345241        6.1919773668       24.3733244889
  C         6.0713711781        1.2746334500       28.4966647282
  C         8.5140245611        3.0230654780       21.5717732752
  H         7.9533746175        1.3178894423       22.5646480626
  C         8.9244430253        4.7886760870       20.4153056077
  H         2.9335689279        5.7510395628       23.5938465955
  H         3.8578149395        7.1543652266       24.0169759343
  C         2.8558167837        6.3831827169       25.6920009932
  C         6.1052739367       -0.1114975549       28.7655083241
  C         5.6598682900        2.1831091046       29.6671857450
  C         8.9907581725        2.3175653729       20.3157272929
  C         9.2491369051        3.6956413080       19.6000949743
  S         9.2781933684        6.2659556931       19.6823835012
  H         2.1523971704        7.1895904973       25.5791765461
  H         3.6550007789        6.6455865917       26.4041173530
  C         2.1695886639        5.1350425612       26.0956525586
  N         6.4321827245       -1.0893105051       27.8508833642
  C         5.7733675367       -0.6062680159       29.9816572087
  C         5.3583292659        1.5804589865       30.9222590100
  H         5.5967032630        3.2213533400       29.5781987555
  C         7.8326586964        1.5860100519       19.6321639693
  C        10.2613108158        1.5093474226       20.4061533516
  C         9.7058450013        4.1176593015       18.3580900121
  C         9.8108080383        5.4776751555       18.2710611287
  H         1.2199097512        5.0885775501       25.4946982192
  H         2.6840773236        4.2325826748       25.9546258868
  C         1.6729635048        5.0878183571       27.5531806798
  S         6.1689084794       -2.5486555272       28.5463796924
  N         5.8132450533       -1.9736314839       30.0193238965
  C         5.3494990416        0.1040741059       31.1213268310
  H         5.2386434026        2.2570860213       31.7285620170
  H         7.3049295224        1.0557187069       20.3229152437
  H         8.1603725059        0.9889157256       18.8660320562
  C         6.7809628172        2.4592793796       19.0060995667
  H        10.4639385546        1.1581577007       19.3740164671
  H        10.1663848543        0.6438704199       21.0224368621
  C        11.5388002336        2.3080014179       20.8540383304
  H         9.9258389259        3.2990216280       17.7273432946
  C        10.0490994760        6.2960336127       17.0252528411
  H         0.8806091195        4.3444444245       27.6687551605
  H         1.2116906102        6.0416057202       27.7586708546
  C         2.6821802566        4.9254949718       28.6274680709
  C         5.0102407181       -0.5952281482       32.3585673694
  H         7.1678919190        2.7908907562       17.9894142076
  H         6.4749544286        3.3860279618       19.4682425572
  C         5.5487685443        1.5304983084       18.6127469838
  H        11.2425696513        3.1426911753       21.4934932986
  H        11.9802415675        2.9212898409       20.0413802231
  C        12.5852770040        1.4038837964       21.5164094281
  C        10.2241838673        7.6699198756       16.9734533789
  C        10.1715962534        5.5893506589       15.6459995806
  H         3.0225810210        3.8578058679       28.5763778694
  H         3.5268620628        5.6313356796       28.6358829568
  C         2.1388571622        5.0301581117       30.0425700503
  H         4.7634655554       -1.6336072656       32.1927865545
  C         4.8251054687       -0.1884239534       33.6086582349
  H         4.9958959323        1.1868985489       19.5359411036
  H         5.8655978452        0.6631114426       18.0436731884
  C         4.5121534613        2.2700661001       17.7980034027
  H        12.3325578074        1.1184707552       22.5208396769
  H        12.7695091531        0.4625214240       21.1267870708
  C        13.9306683204        2.0686163340       21.4846084930
  N        10.0962032703        8.5552718637       18.0556351588
  C        10.4739443860        8.4049695653       15.7791714024
  C        10.3928635279        6.3396230444       14.4839231647
  H        10.2679604142        4.5279500177       15.6588447300
  H         1.6084107966        5.9342328916       30.1594628236
  H         1.4206437592        4.2683842760       30.1759852659
  H         2.8661868449        4.7790205727       30.7919415135
  S         4.5731856918        1.4158130866       34.0855325707
  C         4.5425121831       -1.2020604365       34.6147361525
  H         4.7776933761        3.3299059537       18.0016815801
  H         4.6290130575        2.1759227552       16.7583874004
  C         3.1332323011        2.0555879556       18.4472629165
  H        14.2711293715        2.6354648677       20.5725127034
  H        14.7302990647        1.3139197610       21.5014176275
  C        14.1998055741        3.0492330494       22.6771155643
  S        10.2712281981       10.0725863969       17.5524508073
  N        10.5793285658        9.8071579407       15.9879589830
  C        10.6466413752        7.7863249097       14.5018887471
  H        10.4708867361        5.8447495197       13.5248458777
  C         4.1896171934        0.7648661570       35.7247536539
  N         4.1317997942       -0.5773923417       35.7858271277
  O         4.6914798970       -2.4295519846       34.4807915107
  H         2.4781393208        2.7897837732       17.9354874287
  H         3.0932002868        2.4008899924       19.4594936460
  C         2.7000369403        0.6326613717       18.2592709890
  H        14.9153010375        3.8006933639       22.4490635179
  H        13.1525554429        3.4138544118       22.8454960012
  C        14.6496567739        2.3445796182       23.9867428100
  C        10.9177563837        8.6190912096       13.4087197178
  S         3.9719756572        1.7687095828       37.2315823290
  C         4.2171056141       -1.3165672848       37.0055686630
  H         3.4092651881       -0.0116592503       18.7663591559
  H         1.7124164450        0.5681076098       18.8175709941
  C         2.5527691315        0.0703657303       16.8933308284
  H        14.1441388781        1.3849083665       24.1119187447
  H        14.4416225646        2.8519812305       24.9215295860
  C        16.1215831440        2.2066010453       24.1259426533
  H        10.6632509488        9.6330818213       13.5198459600
  C        11.4872127070        8.2938445826       12.1927219288
  H         3.8325473317       -0.7816575690       37.8434969525
  H         3.6479150566       -2.2615688720       36.8833801447
  C         5.6655731282       -1.5799702268       37.4968885742
  H         3.4129960902        0.1396674978       16.3469615416
  H         1.8129823071        0.6534157070       16.3602119553
  C         2.0513839444       -1.3963848400       16.8961522888
  H        16.5157120291        3.0460220531       24.7083806019
  H        16.3704013359        1.4257179194       24.8174227342
  C        17.0347875387        1.8891150656       22.9499911285
  S        11.9873697162        6.7863850202       11.7562908721
  C        11.4425152273        9.3663000786       11.1713620213
  H         5.8938668610       -2.6297541070       37.7639181256
  H         6.3865502089       -1.2886549397       36.6654795168
  H         5.9211220696       -1.0303531335       38.4357309756
  H         1.8351996092       -1.7286005061       17.9375721751
  H         2.5887327984       -2.1105127396       16.2670614532
  H         1.0008791805       -1.3982467699       16.5597993230
  H        18.0992084130        1.9566307243       23.3325963984
  H        16.9166004215        2.6314021437       22.2154094885
  H        16.7395820276        0.8464400768       22.6231695743
  C        12.3498635325        7.5240408892       10.1814901028
  N        11.9533231736        8.7883624857       10.0572530084
  O        11.0642605609       10.5178106325       11.3443590489
  S        13.1729137478        6.7919252183        8.8525435757
  C        12.1478003299        9.4931988979        8.7943358576
  H        12.1873699343       10.5347835498        8.9805542387
  H        13.0675632817        9.3950384280        8.2084797648
  C        11.0070095750        9.2842565223        7.8542458584
  H        10.1913218985        9.9864640151        8.0198522123
  H        11.2716995847        9.2858990958        6.7792950304
  H        10.7222803289        8.2867413988        8.0466067608
  H        -3.7631229345       14.3831206488       16.4071402936
  C        -3.3483996405       13.4066867716       16.2031542981
  H        -4.1893251593       12.7628096412       16.3579679545
  C        -2.2580889240       13.2687756153       17.2797564815
  C        -2.7960756663       13.6205042888       14.7839404117
  C        -2.8396383286       13.7273399879       18.7029903566
  H        -2.0795647032       12.1942849128       17.4896311709
  H        -1.3699921674       13.7817597597       16.9078995677
  H        -3.5898114881       13.9840009835       14.1814324204
  H        -1.8946957774       14.2269637941       14.7507685118
  H        -2.5914927985       12.6908161237       14.2672733245
  C        -1.8660028367       13.4776973074       19.7472557970
  H        -3.7603058399       13.2019337174       18.8837127367
  H        -3.1213646380       14.7725354537       18.5945491320
  C        -2.4718903448       13.3060131064       21.0997716052
  H        -1.3207093914       12.5182240883       19.5975236174
  H        -1.1708908040       14.3259351326       19.7160304318
  C        -1.4321759781       12.6582964474       22.0877944633
  H        -3.3942454190       12.7459526478       20.9662941504
  H        -2.7418625113       14.2911967855       21.5003451086
  C        -0.2154128284       13.4836509953       22.2804012984
  H        -1.8158419244       12.3453496023       23.0754744704
  H        -1.2017132610       11.6448522900       21.6328900394
  C         0.9144706407       12.7164274183       22.9913612196
  H         0.1577667175       13.8108025884       21.2888997833
  H        -0.4708491624       14.3585229556       22.8306048452
  C         1.2687732901       11.3789379359       22.3045541171
  C         0.5195102910       11.9460929749       24.2242276125
  C         2.1372736788       13.7310497158       23.2685598807
  C         1.1590378879       10.2927092616       23.1676187793
  C         1.7223473586       11.0711400244       21.0325759611
  C         0.6349183406       10.6347386382       24.3493199767
  C         0.0866412156       12.6132174117       25.4192489634
  H         2.3058255282       14.3917697339       22.4673059357
  H         1.7537683105       14.3732989405       24.1099817887
  C         3.5113305311       12.9380825977       23.6455727702
  S         1.7149350713        8.8425673262       22.4344740319
  C         2.0167689282        9.6856387999       20.9251324597
  H         1.9194803365       11.7937949645       20.2097828009
  C         0.2560895987        9.9764630760       25.4808566364
  H        -0.0109229063       13.6868588086       25.4551757249
  C        -0.2285510741       11.9737470468       26.5544128334
  H         3.6813932537       12.1468383284       22.9769269308
  H         3.3887238357       12.3674076397       24.5516753913
  C         4.6530452827       14.0013616592       23.6632229146
  C         2.6442457724        8.9656691535       19.7683319655
  C        -0.2169029843       10.6119563255       26.6353566254
  H         0.2115019237        8.9053575681       25.5119763229
  C        -0.5872913918       12.3327052659       27.8269611120
  H         5.3025829292       13.8299568016       24.4521888145
  H         4.1700450319       14.9660881988       23.9184279348
  C         5.4715873312       14.2697247515       22.4120086917
  C         2.7042646132        7.6289065037       19.5415841188
  C         3.0679333988        9.8162540253       18.5869715417
  C        -0.6655533059        9.8842308889       27.8662988887
  C        -0.9550913698       11.2188055562       28.5923610371
  S        -0.6656997967       13.7486482411       28.6395985255
  H         5.9786328075       15.2102172068       22.5083941843
  H         4.6896952468       14.3626831319       21.6742231111
  C         6.4563829951       13.1451065751       22.0244893608
  N         2.4374463046        6.6288505529       20.5477029550
  C         2.8725686818        7.0795446987       18.2872322152
  C         3.2605233309        9.2833633965       17.3134928945
  H         3.0496663939       10.8636471182       18.7289083540
  C         0.5009812202        9.0895919953       28.5454859139
  C        -1.9328068150        9.0676535508       27.6252532049
  C        -1.2998714885       11.6409298332       29.9229921660
  C        -1.1763961024       12.9716597004       30.0970491255
  H         7.1914329888       13.0383639752       22.8744054383
  H         5.9882340347       12.1690433028       21.9104934228
  C         7.0477771082       13.4273313767       20.6473251943
  S         2.3744099985        5.1853074929       19.8279947774
  N         2.6044516176        5.6783391585       18.3132878732
  C         3.0950439691        7.8290781127       17.0999220863
  H         3.4739144656       10.0518263747       16.5133845156
  H         0.7676807027        8.4254034396       27.6561261268
  H         0.1798568547        8.3958989619       29.3942179590
  C         1.6788829657        9.9592689526       29.0329050997
  H        -1.8121590455        8.3636012102       26.8579458403
  H        -2.2406708790        8.5728393549       28.5661959732
  C        -3.1139240253        9.9945283761       27.2115920368
  H        -1.7028895666       10.8813367948       30.6320325023
  C        -1.4589473909       13.6678101894       31.4081134694
  H         7.5688820231       12.5704861563       20.1809911608
  H         7.7716625190       14.2295148221       20.7711274905
  C         6.0495300330       13.7764310239       19.5829667412
  C         3.3002743342        7.1181817523       15.9121767101
  H         1.9810159806       10.3854594340       28.1078890405
  H         1.4672030066       10.8404200190       29.6204140394
  C         2.8319080497        9.0588855137       29.4651414250
  H        -2.7656359949       10.8745645591       26.6087181707
  H        -3.4526013195       10.4627225925       28.2044902596
  C        -4.2396893749        9.1244296208       26.5691293040
  C        -1.6519349869       15.0603050469       31.5239692989
  C        -1.7897380700       12.9338559415       32.6622489572
  H         5.6753410834       14.8124728752       19.8228887335
  H         6.5847366805       13.9390394399       18.6006267326
  C         4.9207309249       12.6976026747       19.3529865072
  H         3.2203792375        6.0440374659       16.0099612439
  C         3.5875058061        7.5870436808       14.6467898870
  H         3.1422319674        8.2632682850       28.7853508746
  H         2.4888757145        8.3909912788       30.2670132059
  C         4.0252904070        9.9114487528       29.9544143728
  H        -3.8961974995        8.3690369314       25.8593570174
  H        -4.5897520593        8.5733688400       27.4093301429
  C        -5.3268238307        9.9348385557       25.8407582546
  N        -1.3234306242       16.0084853505       30.5405793374
  C        -2.0240415472       15.6588319578       32.7301158820
  C        -2.1776728790       13.5052417645       33.8669204254
  H        -1.6144832818       11.8756024652       32.5947717055
  H         4.4509382609       13.1835861580       18.4521959105
  H         5.3797090173       11.8300762358       18.9225500543
  H         4.2630972052       12.4557767096       20.2607172487
  S         3.8680095042        9.2363833534       14.1335711227
  C         3.7180496236        6.5615485462       13.5957541540
  H         4.0920739150       10.8171450334       29.3976344719
  H         3.7620916925       10.2840983809       30.9507686516
  C         5.3367710855        9.1693876399       29.8997632498
  H        -5.0014269556       10.2640603583       24.8344467406
  H        -5.4050474350       10.9542932361       26.3550377731
  C        -6.7032457714        9.3029306041       26.0336048414
  S        -1.5965230507       17.5048457084       31.1648115328
  N        -2.1237358039       17.0689525133       32.6623909160
  C        -2.2987195081       14.9627321361       33.9149628753
  H        -2.2818611523       12.9409376429       34.7280319658
  C         4.1694505401        8.5352190993       12.5654804677
  N         4.1007668574        7.1260773418       12.4535664231
  O         3.4830857026        5.3741109625       13.8374590258
  H         6.0618355921        9.9399870033       30.2940899798
  H         5.7086815871        9.0163653988       28.8681666502
  C         5.3653973850        7.8473573239       30.7183240999
  H        -6.6450599137        8.3728010181       25.4837236435
  H        -6.8166659228        9.0325293495       27.0986090615
  C        -7.8194723300       10.1956038554       25.4710259822
  C        -2.5769607332       15.7145955658       35.0516470443
  S         4.3901191326        9.4310116635       11.0526587626
  C         4.2599513635        6.4024225138       11.2356371513
  H         5.6402811745        8.0545704275       31.7551158737
  H         4.3172373371        7.4498086141       30.8116014584
  C         6.2307402860        6.6943423540       30.2672330045
  H        -7.6401676435       10.5683947275       24.4571886570
  H        -7.7484324404       11.1344197992       26.0823113322
  C        -9.1742337050        9.5152116894       25.5471270780
  H        -2.0579652552       16.6762458824       34.9950702447
  C        -3.2415202321       15.4302489240       36.2162172463
  H         4.9707760987        6.9494607967       10.5674634402
  H         4.6892312724        5.4376850023       11.4944267448
  C         2.9015889008        6.1763039087       10.5263341421
  H         7.2065753030        7.1704805141       29.9979335592
  H         5.6916839961        6.1925210700       29.4730631655
  C         6.5445795018        5.7135603517       31.4127481758
  H       -10.0251309067       10.0675902014       25.0625395269
  H        -9.1847680348        8.5111828823       25.2460640270
  C        -9.6924519724        9.5778126668       27.0747481292
  S        -4.0639115493       14.0779265115       36.6361574223
  C        -3.1675482859       16.4932323312       37.2592693602
  H         2.5088171329        7.0843377456       10.0776337491
  H         2.9807199191        5.3597188711        9.7778775024
  H         2.0605374081        5.8921721697       11.1806387566
  H         7.5513069997        5.9160099748       31.8943324258
  H         6.6084675482        4.6899743730       31.0777833075
  H         5.8188293604        5.7603488454       32.1994106017
  H        -9.6200637026       10.5396947599       27.6110211068
  H        -9.2258646419        8.8771021111       27.6926077571
  H       -10.7494676735        9.3528746350       27.2565027963
  C        -4.3867602255       14.8158608106       38.2553601261
  N        -3.9098689298       16.0722394910       38.3240430405
  O        -2.4910600926       17.5214969302       37.1930012048
  S        -5.4297324205       14.2536257513       39.5452831278
  C        -4.0039545622       16.9219150402       39.4835080300
  H        -4.0699456135       17.8798495667       38.9837346434
  H        -4.9636998166       16.9022207579       39.9357138038
  C        -2.8040207410       16.7615124024       40.5141107225
  H        -2.1031857842       16.0067811635       40.0548478900
  H        -2.1871128852       17.6529924547       40.7065744431
  H        -3.1625764876       16.3871341607       41.5469086903
