352
 i =    82800, time =    82800.000, E =        25.2813063922
  H        10.3581621269        6.4287392237       32.8662266248
  C        11.3200461627        6.1657939097       32.4421951195
  H        11.9257753561        6.8834417553       32.9398899334
  C        11.4545834822        6.4362146187       30.9139584464
  C        11.5930393289        4.7809495494       33.1419948600
  C        10.7140467437        5.2837926920       30.1134113869
  H        11.1595612873        7.4688005279       30.6751633578
  H        12.4925984969        6.3395001300       30.6113409598
  H        12.5548134269        4.3992590611       32.8255719628
  H        11.5264772127        4.8996911338       34.2397456618
  H        10.8363457974        3.9855773756       32.9574079057
  C         9.8707221538        5.8193186543       28.9605982137
  H        10.0665892896        4.7149733133       30.7856104922
  H        11.4937716885        4.6409280358       29.6925640858
  C        10.6025834572        5.6711186872       27.6777785050
  H         9.0702129720        5.1639111329       28.8372298431
  H         9.3244463480        6.7913749167       29.1157225876
  C         9.7318639790        4.9569968218       26.6355234278
  H        11.4460658487        5.0430412028       27.8371789362
  H        11.0019777771        6.6806509632       27.5376786308
  C         8.6246714897        5.9201925806       26.0221648271
  H        10.3039576308        4.5015580423       25.8490232788
  H         9.3683550992        4.0535286969       27.1135113321
  C         7.4749406370        5.2211144339       25.2662404838
  H         8.2263725884        6.4824914579       26.8224623752
  H         9.1574999406        6.6350972267       25.3986291777
  C         7.0537416562        3.8564308081       25.9098642897
  C         8.0397536865        4.4525033710       24.1001594958
  C         6.3059920251        6.0981837697       24.9838578148
  C         7.3748031928        2.7273326331       25.1789847406
  C         6.4010289192        3.4527448930       27.1009271782
  C         7.9360765154        3.1107887276       24.0039362523
  C         8.5001652640        5.1310642577       23.0099881651
  H         5.7691476208        5.6587025537       24.2030423326
  H         6.6156326343        6.9344482971       24.4484242805
  C         5.3811238917        6.4246358859       26.1332643236
  S         7.0382234905        1.2387327522       25.9177113369
  C         6.4654942764        2.1075857055       27.3346527988
  H         6.0843961784        4.2098426338       27.8883353627
  C         8.2301634276        2.5128145475       22.7924899181
  H         8.4930874892        6.1878594206       22.9476767859
  C         8.9089872240        4.5184533985       21.9033705366
  H         5.6149178277        5.9080631664       27.0628974829
  H         5.5802093826        7.4162542329       26.3001011248
  C         3.9218986243        6.1973336272       25.7144822729
  C         5.9776278320        1.4393806511       28.5956860820
  C         8.7014013622        3.1429919105       21.6452002184
  H         8.1434424459        1.4200300881       22.7734763670
  C         9.2846863729        4.9032649771       20.6336424976
  H         3.8850753231        5.1163599818       25.3729219554
  H         3.7436290168        7.0183026728       24.9883224404
  C         2.9497864867        6.3713315196       26.8036507533
  C         6.1106488994        0.0580849804       28.8897822039
  C         5.3888483759        2.2833714439       29.6777243177
  C         9.0074344654        2.4246246759       20.3648567356
  C         9.3271674975        3.8580710881       19.7540683371
  S         9.7077109379        6.4197718183       19.9255665310
  H         2.1074468646        6.8015325113       26.3221450287
  H         3.3319818947        7.1198523148       27.3736570471
  C         2.7681281337        5.1211866393       27.6690500673
  N         6.5760819139       -0.8799799684       27.9361791778
  C         5.7728774141       -0.4776466595       30.1513164743
  C         5.0638200781        1.7175012733       30.9349908794
  H         5.0979116361        3.2756789458       29.4942216898
  C         7.8239706537        1.8057805888       19.5915020693
  C        10.2261705470        1.5344639659       20.3906404910
  C         9.7785266766        4.3131975029       18.5055761919
  C         9.8860268367        5.6956325970       18.3882694533
  H         2.5825334510        4.2693673095       27.0148053167
  H         3.6891363278        4.9217556409       28.1178094007
  C         1.6593073502        5.0364619264       28.6992849481
  S         6.5158870669       -2.3259238506       28.6339927396
  N         5.9990991345       -1.8795282770       30.1298372089
  C         5.2759329255        0.2454047210       31.2625512249
  H         4.5788370763        2.3169574431       31.6379188254
  H         7.6255277027        0.8441393316       20.0872364798
  H         8.0007004974        1.5335217346       18.4904747428
  C         6.5478650766        2.6658925370       19.5908415350
  H        10.3795634870        1.2184495915       19.3743500306
  H         9.8877123792        0.6243241785       20.8983011539
  C        11.4468384423        2.2670045950       20.9987056532
  H         9.8295875569        3.6193280307       17.6668935722
  C        10.3640881397        6.4559800430       17.1961320926
  H         1.3377913589        4.0047067756       28.8592015165
  H         0.8338755390        5.5822299553       28.2087573581
  C         2.0843603503        5.7310263417       30.0114752586
  C         5.1849913030       -0.4542147557       32.4950865031
  H         6.6818129422        3.4508558245       18.8768241778
  H         6.3715834662        3.2164430140       20.4771293930
  C         5.3082125690        1.8692578930       19.4412299771
  H        11.1792594224        2.8107098340       21.9234306603
  H        11.7990773961        3.0479911669       20.3303517280
  C        12.6206706585        1.3398404380       21.2714406360
  C        10.4557246236        7.8742893721       17.0641233520
  C        10.6341212886        5.7100293540       15.9353925499
  H         2.5677653188        6.6056364426       29.6211623837
  H         1.2156348285        6.1730677139       30.5813392426
  C         3.1737749434        5.1001206992       30.8279626258
  H         5.4174460841       -1.4841024944       32.4000520762
  C         4.8267890267       -0.0099501214       33.7849419461
  H         4.4518829625        2.4173053398       19.6101564288
  H         5.3093133918        1.1006206205       20.2253210782
  C         5.2549846245        1.1842028347       18.0779569092
  H        12.3742525578        0.8001775474       22.1936527725
  H        12.7967668872        0.7291482095       20.3819649197
  C        13.9188167095        2.0254151962       21.4438008612
  N        10.1670233516        8.8326836203       18.0973911192
  C        10.8688610293        8.4481315927       15.9429667477
  C        11.2124741985        6.3200780234       14.8406923865
  H        10.4810084605        4.6213608402       15.9598629097
  H         3.6612828774        4.4105661261       30.0953284133
  H         3.7380845322        5.7784074561       31.3993015267
  H         2.7474680194        4.4974376014       31.5840111046
  S         4.6183432672        1.6412946405       34.2298882057
  C         4.7509786948       -0.9978620217       34.8499746731
  H         5.4193475979        2.0243340974       17.3959138918
  H         6.0362832825        0.4395132207       18.0721027127
  C         3.8082525534        0.6532540922       17.7430247908
  H        13.5513743658        2.9063646763       21.9629496957
  H        14.3677859678        2.2707394920       20.5363593253
  C        14.8275894959        1.3934102596       22.5341595026
  S        10.1967835506       10.3160848695       17.4890335599
  N        10.7883364342        9.8279323796       16.0461446956
  C        11.2498243850        7.8417749206       14.7153155024
  H        11.7643907209        5.7451260788       14.1277860082
  C         4.3275934028        0.9774301889       35.8207094804
  N         4.4142464551       -0.3845481864       35.9709532749
  O         4.9511685343       -2.1967302865       34.6991303212
  H         3.7199632404        0.2252424197       16.7214934069
  H         3.2304517910        1.5567091501       17.8074824478
  C         3.3460454247       -0.4494216006       18.7636848178
  H        14.2743051775        0.9245720601       23.3458276231
  H        15.4667440671        0.6638072642       22.0516660229
  C        15.6764527562        2.5520190503       23.0761964628
  C        11.4293552868        8.6195513629       13.4815807857
  S         3.9890750165        2.0534662014       37.1506072613
  C         4.3835005560       -1.1183283966       37.2628784676
  H         4.0438774693       -1.3053237601       18.8724204787
  H         3.0996657775        0.0506700870       19.7085728153
  C         1.9916770233       -1.0773700736       18.3115301513
  H        15.0959993960        3.0990072051       23.8234907857
  H        15.8222524529        3.3200825971       22.2657610450
  C        17.0199918194        2.1689527784       23.7137883186
  H        10.9832076522        9.5707935692       13.4910312139
  C        11.9845740545        8.3680709284       12.2304706027
  H         3.7694083607       -0.5284411529       37.9417154802
  H         3.8875744558       -2.1135867235       37.1660205615
  C         5.7896375904       -1.3794115882       37.9351672807
  H         1.3596683547       -0.1810181173       18.2246184273
  H         1.5157009236       -1.8142675286       19.0157231106
  C         2.1717557349       -1.7993902701       17.0184542705
  H        17.1523971383        2.7788067761       24.5960655869
  H        17.1684003404        1.0519640456       23.9852873038
  C        18.1692427260        2.4999062630       22.7434615871
  S        12.7772004876        6.9045805187       11.6889666310
  C        11.9044822093        9.4465767729       11.2240784362
  H         6.4503915077       -1.2329095084       37.1613030357
  H         5.8325284706       -0.6351003710       38.7471812068
  H         5.7251332003       -2.2987999106       38.4117950262
  H         1.7150112804       -1.3497972361       16.1629699622
  H         1.8732937063       -2.7833306813       17.1749531287
  H         3.2379012209       -1.8954718533       16.8047385361
  H        17.8531090849        3.1582415620       21.8900971346
  H        18.4983964992        1.5487787632       22.3018644952
  H        19.0476517311        2.9368796475       23.3474414292
  C        12.8957158354        7.7341496782       10.1033233753
  N        12.4678927461        9.0084339240       10.0790033617
  O        11.3737981621       10.5334583346       11.3458502225
  S        13.6453843949        7.0902893073        8.6163280376
  C        12.4826268519        9.8531816266        8.8282908570
  H        12.5627550842       10.9389813582        9.1564264486
  H        13.4020565384        9.7784357126        8.2376457633
  C        11.1892440539        9.5905255138        7.9630395759
  H        10.2903955930        9.7654233404        8.5005901570
  H        11.2560001959       10.0782107386        6.9555961446
  H        11.2476742655        8.5299051649        7.7205901786
  H        -3.3272355824       14.8303485122       16.1363483019
  C        -3.1393673038       13.7371091759       16.2475943617
  H        -4.0809869272       13.2492197159       16.5142077215
  C        -2.2541860055       13.4579977915       17.4263010579
  C        -2.6057665199       13.2796301377       14.8918699678
  C        -2.8869337859       13.7439086763       18.7520360655
  H        -1.6590934304       12.5238581054       17.4410084188
  H        -1.5260630687       14.2817044664       17.3944956795
  H        -1.5136694604       13.2657733987       14.9514991978
  H        -2.9847279994       12.2810073366       14.5478704172
  H        -2.8213877672       14.0042107730       14.1349150215
  C        -1.7496859466       13.7239520546       19.8380589296
  H        -3.5555967945       13.0101706288       19.0888126658
  H        -3.4008952457       14.6890283016       18.7936678769
  C        -2.1793341346       13.6111548060       21.3266875434
  H        -1.0158989421       12.9678920398       19.5401557739
  H        -1.2271860182       14.7033779532       19.8184242154
  C        -1.1187234475       12.7704472217       22.1203892169
  H        -3.1482650669       13.2038111983       21.3385201252
  H        -2.2292287984       14.6167362734       21.7576620011
  C         0.0438726340       13.7534632028       22.5613457491
  H        -1.5316955654       12.2581370988       22.9781419186
  H        -0.7764927276       12.0386321052       21.3925843967
  C         1.1492479715       12.9705709763       23.3738229520
  H         0.3107011657       14.3235243561       21.6706310811
  H        -0.3072534526       14.4574758441       23.2772792906
  C         1.5587555773       11.6461360300       22.5932183714
  C         0.7959865477       12.1251939888       24.5407814487
  C         2.4222784869       13.8867177994       23.5276382107
  C         1.3449976578       10.4956545080       23.3817167546
  C         1.9920801618       11.3034668573       21.2852510721
  C         0.8270957512       10.7692438151       24.6634889694
  C         0.3501403565       12.7359691470       25.7080293988
  H         2.4277996264       14.4674475420       22.6023505079
  H         2.3956339075       14.6536205040       24.3051258033
  C         3.7179535090       13.1705800923       23.8994964612
  S         1.6458266685        9.0225303966       22.6051227091
  C         2.1044760061        9.9102202076       21.2024927199
  H         2.2747142675       12.0924768817       20.5381065973
  C         0.4678577403       10.1219450695       25.8085245419
  H         0.4107612076       13.8487879219       25.7841779045
  C        -0.0092628448       12.2012914824       26.8887118842
  H         3.9491642534       12.5919434348       22.9891497091
  H         3.6480233728       12.4650285220       24.6458100879
  C         4.8820311818       14.1690751890       24.2104523176
  C         2.6159806024        9.2268056692       19.9199043645
  C         0.0271317733       10.8235274477       26.9578282696
  H         0.5186417428        9.0672645333       25.7657566350
  C        -0.4545103892       12.5404260860       28.1300662591
  H         5.5244623076       13.6035779528       24.9067443973
  H         4.5315876744       15.0399759701       24.7830086198
  C         5.6404722415       14.6475389881       22.9521887472
  C         2.7594708775        7.8472127262       19.6295173288
  C         3.0807345623       10.0675792138       18.7815924669
  C        -0.3567245140       10.1569033901       28.1531801657
  C        -0.5946179539       11.4304435656       28.9181604435
  S        -0.6839231832       14.0384590156       28.9613032642
  H         6.2980428176       15.5254665763       23.0646110093
  H         5.0430653172       15.0555731841       22.1349401659
  C         6.3919648011       13.4401596459       22.3915326968
  N         2.5072973569        6.8130074910       20.5871121630
  C         3.1340741445        7.3473713538       18.4371702222
  C         3.5382570513        9.6011015204       17.5579313886
  H         3.1919953084       11.0774261795       19.0476012040
  C         0.8736075949        9.4250054313       28.9104793784
  C        -1.5654241277        9.2107178204       27.9089408676
  C        -0.8694203074       11.8245524738       30.2354314440
  C        -1.0839160177       13.1744718018       30.4045627520
  H         6.9999605062       13.0086736113       23.2641854328
  H         5.6453366484       12.7152161956       21.9871808333
  C         7.4250548848       13.7051455138       21.2990492633
  S         2.7174167058        5.3894239747       19.8252594286
  N         3.0950563676        5.9412230481       18.3291089065
  C         3.5289289506        8.0990193932       17.2793161883
  H         3.8355409922       10.2866311485       16.8413819799
  H         1.3473711214        8.6523655908       28.1511333155
  H         0.4888137156        8.8199048897       29.7030098484
  C         1.9348537112       10.3807227085       29.4895671608
  H        -1.4136274710        8.6274453439       27.0301605545
  H        -1.5931216023        8.3995363058       28.6229295000
  C        -2.8702772939       10.0223997710       27.7386585400
  H        -0.9286293085       11.1735964430       31.0722111523
  C        -1.4515721886       13.8323556641       31.6842548192
  H         7.9679801170       12.7724477704       21.4022467108
  H         8.1701392085       14.4823250496       21.5454020503
  C         6.8302218729       13.8082011725       19.8779528255
  C         3.6861215232        7.4204573758       16.0375038423
  H         2.2433772274       11.0991422858       28.7636799712
  H         1.5788705514       11.0116889165       30.3362097420
  C         3.3125484818        9.6941978906       29.7798427722
  H        -2.7478472648       10.7173503877       26.8527160534
  H        -3.0400964242       10.7395632639       28.5561616062
  C        -4.0766277395        9.1331574398       27.5599099684
  C        -1.5968716171       15.2186998758       31.9085617275
  C        -1.8426950403       13.0749845102       32.8774840688
  H         6.0560266178       13.0928654775       19.6892273111
  H         6.3155361822       14.7541695766       19.8315559450
  C         7.6974820507       13.5590526994       18.6670392805
  H         3.5526001596        6.3505610770       16.0684443081
  C         4.1444467652        7.8669656148       14.8141883546
  H         3.5112697330        9.2371291453       28.8321765504
  H         3.3103341600        8.8418000534       30.5329857335
  C         4.3840550973       10.7179480831       29.9761034950
  H        -3.8445334016        8.4230233915       26.7957721379
  H        -4.2339841048        8.5679073221       28.5283733156
  C        -5.3324884821        9.8068474578       27.1601172798
  N        -1.4080746989       16.2116239195       30.8838227218
  C        -2.0155159536       15.8110941746       33.1260415606
  C        -2.3125637558       13.5939059510       34.1014236693
  H        -1.8051294365       12.0193172453       32.7869132519
  H         8.3126079066       14.4212408779       18.5194046168
  H         8.3100827725       12.7182875580       18.8083525053
  H         7.0543638256       13.6468136361       17.7747976795
  S         4.5912843171        9.4996637365       14.3502763339
  C         4.0822673049        6.8947913314       13.7355924474
  H         4.7319994962       11.1963558316       29.0373050881
  H         4.0350443091       11.4783533031       30.6923318281
  C         5.6634417753       10.0761351710       30.6960392498
  H        -5.2535553692       10.6861990992       27.8562251514
  H        -6.1961854919        9.1929033567       27.4192509214
  C        -5.4178150531       10.1390831695       25.6726620971
  S        -1.5062748718       17.6452638015       31.6360487171
  N        -1.9658464173       17.2371981669       33.1431064541
  C        -2.4175656234       15.1015358762       34.2517039284
  H        -2.5226988774       12.8839045020       34.8787627468
  C         4.5667079189        8.8847554386       12.7134621287
  N         4.4127734428        7.5660986872       12.5673397890
  O         3.8775724027        5.7309697097       13.8852695167
  H         5.3028341573        9.4559879894       31.5741869529
  H         6.2333085890       10.8987356691       31.1580887688
  C         6.6271079801        9.3297105869       29.7749135034
  H        -4.5850114270       10.8139944161       25.3924932110
  H        -5.3181447065        9.2424597706       25.1053200692
  C        -6.7715862224       10.7539486175       25.3522938029
  C        -2.6274724637       15.7673283714       35.4679513917
  S         5.0130314365        9.8997361481       11.3121357057
  C         4.4097947290        6.9418829635       11.2068283971
  H         6.5412413783        9.8878660268       28.8466081386
  H         7.6561244342        9.4554389191       30.1312682304
  C         6.2539804842        7.8483194153       29.3479997967
  H        -6.7919397115       11.2329899965       24.3328311151
  H        -6.9038822479       11.5221021258       26.1090721685
  C        -7.9912461109        9.7863116861       25.4083448618
  H        -2.2362968329       16.8015259107       35.4620171647
  C        -3.0876060219       15.2813937904       36.6613419368
  H         4.8993499749        7.5396420984       10.4434171518
  H         4.9910079414        5.9869487206       11.1875911166
  C         2.9713622905        6.7435949806       10.6718981630
  H         6.9065410390        7.5222039823       28.5567641487
  H         5.2407059188        7.9041628340       29.0734270865
  C         6.5030533631        6.8694910559       30.4651435873
  H        -8.4340796458        9.7511581627       24.4226733501
  H        -7.7620460989        8.7561281928       25.5946949754
  C        -9.0762919671       10.3021502188       26.3772198139
  S        -3.6310824864       13.6604721342       37.0269747396
  C        -3.0809486720       16.2011663974       37.8389099900
  H         2.6641075134        7.4397058314        9.8728445842
  H         2.8573786804        5.7231898057       10.3682485786
  H         2.3919079729        6.8473262130       11.5385789607
  H         6.0754218306        7.3243944965       31.3870951834
  H         7.5520293673        6.6707815746       30.5422622109
  H         6.2017819920        5.8708514163       30.1112497143
  H        -8.9054320050       10.1790453659       27.4264365153
  H        -9.9760950521        9.6963818655       26.2580358661
  H        -9.2336158509       11.3819192245       26.1576412062
  C        -3.8616469022       14.2335146497       38.7060408152
  N        -3.6358096197       15.5647208214       38.9102881443
  O        -2.6225326505       17.3512052537       37.7693991327
  S        -4.1883240631       13.1886248491       40.1246707395
  C        -3.8248557757       16.2666976905       40.2162594798
  H        -4.2236568421       17.2753788043       39.9198616872
  H        -4.5463586005       15.6571860187       40.7471099586
  C        -2.5380650958       16.5024039520       41.0715340645
  H        -2.3499502400       17.5740794978       41.1720440537
  H        -2.6329656150       16.1274222128       42.0627450183
  H        -1.6300642484       16.2221018168       40.5123967826
