352
 i =      400, time =      400.000, E =        55.3090910887
  H        11.8823233235        6.9850646048       32.6462234056
  C        11.5000124864        6.1648734646       32.4991265269
  H        12.2905982126        5.6095764036       32.1848722403
  C        10.3399991406        6.3153697756       31.4535580417
  C        11.0624536027        5.5795263389       33.8780142001
  C        10.8427299485        5.8291560682       30.0453108521
  H         9.5296205492        5.7035370787       31.7337645922
  H         9.9665190850        7.2386420185       31.3746084533
  H        11.4345265490        6.2144185582       34.6488552257
  H        10.0012270229        5.4402129464       33.8920639644
  H        11.7101217930        4.6854239013       34.0337755345
  C         9.7391930590        5.7721879012       29.0053324197
  H        11.2435207802        4.7557347744       30.1575887927
  H        11.6393040432        6.5042339516       29.6356451611
  C        10.4459318962        5.5307623989       27.7004029798
  H         9.1806972070        4.9881393753       29.2896289762
  H         9.2353920666        6.6643788098       29.0809381340
  C         9.3742600365        5.0144979381       26.6194840582
  H        11.0990416387        4.7000139220       27.8236946126
  H        10.9765028549        6.3042810125       27.2553972696
  C         8.2610529839        5.9417137989       26.3027167713
  H         9.9123881506        4.6638386434       25.6641745921
  H         9.0944107430        4.0687553815       27.1463670564
  C         7.0220521784        5.2532253882       25.5093596353
  H         7.7448929639        6.4205064695       27.0782661622
  H         8.5080427471        6.6530632469       25.6557340830
  C         6.7451618516        3.8454052215       26.2455457810
  C         7.6140455993        4.5483279081       24.3847556397
  C         5.7483196102        6.1051043510       25.3471295188
  C         7.0998686637        2.7921524199       25.4247388844
  C         6.1329848939        3.4384744817       27.4704447674
  C         7.7000261016        3.2115339246       24.3116085132
  C         8.2058465537        5.2125444398       23.2636989154
  H         6.2710580789        6.8324266900       24.6734372429
  H         5.4302819037        6.6171335049       26.2838177446
  C         4.5883367542        5.2798142247       24.7151781396
  S         6.8627169147        1.2383998396       26.1832379145
  C         6.1834931466        2.1248319736       27.6071351456
  H         5.7844656514        4.1781313397       28.0594984981
  C         8.1287304541        2.6420091350       23.1779146673
  H         8.3073296819        6.4037951275       23.3298826359
  C         8.6366431832        4.6478265290       22.1008344802
  H         4.7426321751        5.0235925268       23.6228837760
  H         4.4098473958        4.3390081418       25.3549607648
  C         3.2350469922        6.0115533911       24.6626717538
  C         5.7598546785        1.4402170464       28.9140241200
  C         8.6556736675        3.3115107438       22.0295806413
  H         7.9712870242        1.4927748699       23.0505611734
  C         9.1555361858        4.9854226198       20.9272340132
  H         2.7073970282        5.3636038815       23.9682687340
  H         3.2935531068        7.0319023740       24.2156394066
  C         2.4461550250        6.1294290728       26.0392696844
  C         5.8363774135        0.0666164023       29.1893496687
  C         5.2567559364        2.2859962995       30.0386043529
  C         9.1194915630        2.5732620820       20.8460013602
  C         9.4032017769        3.9100328250       20.1740936424
  S         9.5324264928        6.5357132364       20.1235570757
  H         1.6433799435        6.7913604351       25.9524481079
  H         3.1979281020        6.5754460858       26.7370404349
  C         1.8710957917        4.7647236898       26.5411039178
  N         6.2044506074       -1.0026987780       28.3260444228
  C         5.5684665349       -0.4654855182       30.4613096700
  C         4.9309605749        1.7467373085       31.2918808713
  H         4.9743703962        3.3383301240       29.9368848470
  C         7.9960453592        1.8449289038       20.0669764867
  C        10.3842914024        1.7767767674       21.1111753428
  C         9.8233279589        4.3165321868       18.9049388015
  C         9.8895563537        5.6638851966       18.7293222944
  H         1.1653896631        4.4462481071       25.8653561944
  H         2.7182334487        4.0966913743       26.4796132534
  C         1.2041492919        4.8730123339       28.0038067415
  S         6.3322361029       -2.4895568782       28.9979126993
  N         5.8942486606       -1.8526454230       30.4338820782
  C         5.1018359120        0.2692565138       31.5315111932
  H         4.4289727233        2.5298466853       31.9715777031
  H         7.4854500806        1.4358047984       20.7736867110
  H         8.3732023096        1.1148908597       19.5114016921
  C         7.0171648669        2.7593516076       19.2066325634
  H        10.5350652913        1.2018009383       20.2543211789
  H        10.1449131893        1.1885272884       21.8963991624
  C        11.5594857478        2.5417578874       21.4019670398
  H         9.9847790218        3.5253350224       18.3563088635
  C        10.1329877055        6.3505617381       17.3716052947
  H         0.9331480150        3.8805493033       28.1886379134
  H         0.2341287847        5.4700654910       28.0368716197
  C         1.9836480451        5.4523231014       29.2577428924
  C         4.9558525526       -0.3346286368       32.8135330859
  H         7.5557111054        3.4113583730       18.5264391513
  H         6.5137517258        3.3913755507       19.9097350782
  C         5.9716684394        1.9790862190       18.4157727766
  H        11.4187699465        2.9328003898       22.4471830209
  H        11.7460291151        3.3150913806       20.7292151675
  C        12.8666273242        1.6053516606       21.5141442989
  C        10.2466306925        7.7006704499       17.1575840462
  C        10.2305833434        5.4854787057       16.1072896191
  H         2.8625943178        4.9587455531       29.3229824332
  H         2.2134050572        6.4742057223       28.9608726384
  C         1.2333576841        5.4621040100       30.4922389165
  H         4.9711564165       -1.5087758002       32.9085384856
  C         4.7123631082        0.1481690981       34.0741113817
  H         5.5931613745        1.2411674404       19.0027818541
  H         6.3911141584        1.7292610855       17.6120400972
  C         4.7886762208        2.7815432015       17.9272898517
  H        12.6444165539        0.9327749294       22.3145880373
  H        12.9210203217        1.1713404407       20.5765678683
  C        14.0359829294        2.5497252189       21.8529629081
  N        10.1094427613        8.8231241796       18.1265750734
  C        10.4844667933        8.2712705593       15.9123871481
  C        10.5283111263        6.0670605310       14.9404533973
  H        10.1257421930        4.3965982527       15.9987649797
  H         1.8924147624        5.7831988227       31.4240903452
  H         0.3528291351        6.1667481200       30.5219653131
  H         0.7381623919        4.5782572842       30.8731617505
  S         4.3391833898        1.7920914121       34.5380756290
  C         4.7184125817       -0.8393845939       35.2072205042
  H         4.7997667008        3.5816681053       18.5067330569
  H         4.9339336330        3.0958073117       16.9862706962
  C         3.4547889808        1.8948587035       18.1477753370
  H        13.6810123686        3.1849450057       22.5426108011
  H        14.4534302953        3.1780866628       21.1760779264
  C        15.2398710901        1.7519417179       22.5489462921
  S         9.8411908833       10.2010326710       17.3893252132
  N        10.3899242893        9.7448958067       15.9590756107
  C        10.7516298827        7.5662844145       14.7494948179
  H        10.5286967537        5.3988079969       14.1432601201
  C         4.3039480623        1.1646702146       36.2613661138
  N         4.3431381965       -0.1567942412       36.3093233379
  O         4.7764487631       -2.0703075958       35.0027205888
  H         2.7268329348        2.5335376071       17.8654982695
  H         3.3454339364        1.8712475553       19.1956079918
  C         3.4015938899        0.6405004831       17.3616900100
  H        14.8693179162        0.7878800752       22.9727977684
  H        15.9343569283        1.4794352935       21.7891622040
  C        16.0807567282        2.4237114979       23.6209801385
  C        10.9683908959        8.2732838070       13.5881525733
  S         3.6731359482        1.9114603514       37.6842818199
  C         4.2418066867       -1.0302644615       37.5681065081
  H         3.0590831110        0.9035339331       16.4043654050
  H         4.3063821828        0.1980353540       17.2147364289
  C         2.4594636826       -0.3999304971       18.1088352847
  H        15.5622943719        2.1841464471       24.5591046059
  H        15.9788562204        3.5312590201       23.4004573765
  C        17.5653885786        2.0219733978       23.6982197295
  H        10.8353854081        9.3532840155       13.6968122284
  C        11.3385746756        7.9232982608       12.3524184037
  H         3.4403577383       -0.7550020714       38.1840339855
  H         4.0867491671       -2.1197848214       37.2682734837
  C         5.5535494522       -1.0588363038       38.1727875547
  H         1.6224697914        0.1289087155       18.4890351964
  H         3.0693104175       -0.5374212215       18.8909852069
  C         2.1916253621       -1.5980252634       17.1877288547
  H        18.0063425526        2.3930095446       24.4745764184
  H        17.6313251568        1.0026857206       23.7922841171
  C        18.2924785292        2.5417977068       22.3763365595
  S        11.7850193838        6.3022209458       11.8621804008
  C        11.6044609403        9.0232963331       11.3084889173
  H         6.1820908162       -1.9546374796       38.2888473995
  H         6.2605201765       -0.3420831093       37.6915384997
  H         5.6038687006       -0.5934126338       39.1782195162
  H         1.5624657427       -2.2580869994       17.7684009455
  H         3.1301175034       -2.1003733250       16.9268794906
  H         1.6667210134       -1.1301896909       16.2754256026
  H        18.4290594545        1.6893863690       21.6199338664
  H        19.2795431584        2.9870229194       22.6777266590
  H        17.6434598662        3.2668008993       21.8200599663
  C        12.2508952196        7.1540324048       10.2763990852
  N        12.1551885584        8.4121025454       10.2440886910
  O        11.3002895705       10.2041185776       11.5189851439
  S        12.7453814207        6.2578888489        8.8029116426
  C        12.1477669909        9.2009503893        9.0171411119
  H        12.4059605259       10.2825666269        9.2597709226
  H        12.9794490144        8.9152617831        8.3055544314
  C        10.8077851754        9.1705458215        8.3030859471
  H        10.1096618644        9.5109537868        9.0594685744
  H        10.8510427582        9.9079491338        7.4590826574
  H        10.7941577171        8.2057503812        7.8622548682
  H        -3.5494100144       15.2824319863       16.1006989321
  C        -3.2345734995       14.3678395646       16.5090939390
  H        -3.9835860033       13.7759435353       16.8302230603
  C        -2.1753879452       14.5978956928       17.5477613999
  C        -2.7509205985       13.5112457946       15.2942390542
  C        -2.4343415073       13.6217098190       18.6122324358
  H        -1.1377818372       14.3001350280       17.2270236774
  H        -2.2662638381       15.5793715261       17.9152917576
  H        -3.5694793097       13.3580381832       14.6052073520
  H        -1.9395315554       14.0841058858       14.8078056794
  H        -2.4360056087       12.4861449604       15.5269126783
  C        -1.4547083597       13.5280232063       19.7747623168
  H        -2.5259714453       12.6665865115       18.2454407014
  H        -3.3834554091       13.7495936449       19.0282451094
  C        -2.0985805885       13.4331559741       21.0621323576
  H        -0.6048591940       12.6701700329       19.4352251992
  H        -0.6860429986       14.4840310140       19.7667183878
  C        -1.2511262188       12.7803446409       22.0877944553
  H        -3.0258006055       12.8201528937       21.0015520151
  H        -2.4208696173       14.4222893076       21.5272848513
  C        -0.0850596954       13.6630426229       22.6094698766
  H        -1.9036979140       12.3169079693       22.8924883116
  H        -0.7642667725       11.9185994008       21.6159909383
  C         1.0450844691       13.0273580546       23.3800795160
  H         0.2369509641       14.2694205689       21.7950321744
  H        -0.5428434795       14.2998906796       23.3959075555
  C         1.3885320455       11.6475849729       22.7131835316
  C         0.6710735251       12.2365175236       24.6015308116
  C         2.2995429570       13.8909498915       23.5078820772
  C         1.1377881698       10.5319132732       23.4699255641
  C         1.8681035032       11.3176365329       21.4257106420
  C         0.7337932015       10.9030928495       24.6674254609
  C         0.0878751877       12.9040472533       25.7427200444
  H         2.5848369606       14.4936751250       22.6284032336
  H         2.2785456708       14.5151462288       24.4487415438
  C         3.6049710258       13.0807601037       23.7071322475
  S         1.4749822094        9.0238497188       22.6104172820
  C         2.0442615298       10.0091716914       21.2129640398
  H         2.1031739071       12.1738694560       20.8503986128
  C         0.3277514271       10.2585788858       25.7398350404
  H         0.0598517431       14.0419804836       25.7473114327
  C        -0.2459669283       12.2797410060       26.8485598170
  H         3.8562544839       12.3855968319       22.9320082268
  H         3.3746674509       12.4386928481       24.4707022303
  C         4.8098897314       13.9858607317       24.0106179095
  C         2.6709572905        9.4379490920       19.8911748336
  C        -0.1461958470       10.8928182811       26.9376829531
  H         0.3417955415        9.0552661624       25.7418200643
  C        -0.6672356940       12.6908915339       28.0558861273
  H         5.3955963296       13.4296454685       24.7172152846
  H         4.4806080440       14.8892845118       24.4435422973
  C         5.6654805749       14.3370575825       22.8086387765
  C         2.5742052939        8.0823329988       19.5663540974
  C         3.2323713421       10.3876807525       18.8809624560
  C        -0.6083091937       10.2369107050       28.1768017348
  C        -0.9169024347       11.6071996519       28.8854209790
  S        -0.9158498719       14.2194648523       28.8835702557
  H         6.3957095341       15.1565314180       22.9438912922
  H         5.0184015227       14.6754403692       21.9060261324
  C         6.5558947335       13.1756761874       22.2803402289
  N         2.1057752110        6.9519190876       20.3669518131
  C         2.8426509683        7.6567306716       18.2318133081
  C         3.7216140832        9.9006535995       17.7030717487
  H         3.5249467548       11.4137865447       19.1168773782
  C         0.4798889625        9.4474960689       28.9117102534
  C        -1.8935952836        9.5059871696       28.0499448808
  C        -1.3951926371       12.0129689997       30.1291473532
  C        -1.3555553794       13.3797098698       30.3283671607
  H         7.2789555262       12.8618894056       22.9185599381
  H         5.7219909597       12.5323407826       22.1545178439
  C         7.2175569368       13.3653991006       20.8634335542
  S         2.2537621522        5.5286143456       19.6133060352
  N         2.5918205634        6.1966078467       18.1673510600
  C         3.2588427214        8.5137289932       17.2516392545
  H         4.3092848151       10.6544251978       17.0098659663
  H         0.7474711231        8.6173943410       28.3054623082
  H        -0.0203793074        9.0458268989       29.6889138310
  C         1.6750453702       10.2522607126       29.4191973598
  H        -1.7367157722        8.7160375922       27.4129698751
  H        -2.1851331194        9.1149130472       29.0129145814
  C        -3.2142627224       10.2612278106       27.6592150875
  H        -1.7408410656       11.2982939144       30.8824170636
  C        -1.7191955871       14.0527770971       31.7190387454
  H         7.7492440787       12.5049395618       20.7005690303
  H         7.7533614887       14.3252026604       20.8738617329
  C         6.1176398802       13.4359334226       19.7568922830
  C         3.3612008632        7.9269788344       16.0053478907
  H         2.1971560812       10.7049391578       28.5789711787
  H         1.4583878655       11.0417095600       30.0752571572
  C         2.7897545295        9.4791382976       30.1513877010
  H        -2.9936769760       11.0010433291       26.9454282010
  H        -3.4858963710       10.7567511433       28.4774174320
  C        -4.2924597771        9.3833470516       27.1430669835
  C        -1.7483413303       15.3791710674       31.9062671179
  C        -1.8280548727       13.2084634806       32.9691473611
  H         5.6237895986       12.5803284414       19.8163997284
  H         5.4203411749       14.2034021691       19.8630753375
  C         6.7806467030       13.4820029485       18.3683727881
  H         3.2713832391        6.8780027482       15.8719120651
  C         3.6604630270        8.3728466818       14.7517341616
  H         3.0157270422        8.6094125295       29.6217727510
  H         2.3266396566        9.0469988772       30.9572421896
  C         3.9997275597       10.2450654866       30.5144144024
  H        -4.1378570605        8.8627121719       26.1968245182
  H        -4.5950709750        8.7759584368       27.9888035015
  C        -5.5972352505       10.2242422187       26.9089354345
  N        -1.6910059605       16.4329928910       30.8525282592
  C        -1.8877057265       15.9760893111       33.0992978056
  C        -2.0213315529       13.7993687715       34.1363070759
  H        -1.6975538903       12.1093767398       33.0415894653
  H         6.1141227266       13.1508143981       17.6621409670
  H         7.1855310218       14.5101396297       18.0800890341
  H         7.6195879550       12.6988524990       18.4941618341
  S         4.0145118606        9.9894245526       14.3297155208
  C         3.6778672435        7.3641881802       13.5938284448
  H         4.3156196347       10.8450798027       29.7262335208
  H         3.8957395891       10.8569554594       31.3819073413
  C         5.2265492731        9.2684559359       30.7474067018
  H        -5.2903940531       10.9040977976       26.2495573596
  H        -6.1611044421       10.5524076225       27.7378584397
  C        -6.6344987471        9.5210581546       25.9101978075
  S        -1.6533081553       17.8930644505       31.6013798452
  N        -2.1440221457       17.3729867991       32.9934650154
  C        -2.1707724865       15.2542745617       34.2902269537
  H        -1.8780170307       13.0365643081       34.9898212651
  C         4.2333798812        9.3238019815       12.6608193899
  N         4.1059750464        8.0355443568       12.5676654322
  O         3.3058317903        6.1441435154       13.6178727282
  H         5.8817927497        9.9055190874       31.1929515698
  H         5.5428383026        9.0110973344       29.7535686663
  C         4.9757764017        8.1093194233       31.5924392127
  H        -6.0607569891        9.0664569943       25.1438736707
  H        -6.8764741763        8.6596824276       26.5258929382
  C        -7.6619953279       10.3997072046       25.4963343169
  C        -2.4479640513       15.9594394154       35.4429336234
  S         4.7681956002       10.1850186378       11.2436969957
  C         4.1672556567        7.2144306473       11.2454842266
  H         5.5458793172        8.2939759503       32.5791348781
  H         4.0549794048        8.1436555593       32.2137729278
  C         5.2356679844        6.6772883636       30.9672336811
  H        -7.4516426932       10.8595748378       24.5040729214
  H        -7.8366617776       11.1608446644       26.1902949293
  C        -9.0571088571        9.5632490617       25.4465343753
  H        -1.9681604938       16.9154256468       35.6586310317
  C        -2.9479261233       15.5842023678       36.6375511304
  H         4.9572301863        7.5577182674       10.5888739998
  H         4.5205161139        6.1901508607       11.4261764214
  C         2.8442071276        7.1842964580       10.4744193922
  H         6.0843675300        6.6753311360       30.3462270636
  H         4.4841070156        6.5704378041       30.3019718803
  C         5.3165000852        5.6014930283       32.0663477039
  H        -9.7405865977       10.0083082991       24.7443407461
  H        -8.8736134155        8.5133668769       25.3348694740
  C        -9.7198016566        9.8497982052       26.7484383147
  S        -3.7108785345       14.0975230308       36.9889351343
  C        -3.1193761301       16.6983071407       37.6459710911
  H         2.1067539113        7.6543557058       11.1407748031
  H         2.6792115603        7.6817029594        9.5756602011
  H         2.3877968742        6.1622145091       10.3219883529
  H         5.7933955318        4.6256058542       31.7476217401
  H         4.2419020718        5.4796583406       32.4436168549
  H         5.9387192170        6.0124780693       32.9431975030
  H        -9.1870580882        9.8996393918       27.7145723937
  H       -10.5432903526        9.0822888219       26.8977180717
  H       -10.2972624541       10.7785771403       26.7223670126
  C        -4.1239769122       14.8699881964       38.6045471408
  N        -3.8275796349       16.1719050005       38.6585225038
  O        -2.7165048126       17.8720403930       37.5175860260
  S        -4.8672898045       14.1847024754       40.0569640196
  C        -4.0915476285       17.0590365110       39.8818843604
  H        -4.2193412234       18.0033055581       39.4444026637
  H        -5.0265053865       16.7711683350       40.3574840181
  C        -2.9585162423       16.9500222822       40.7694125218
  H        -2.4636705144       15.8876264580       40.6727663323
  H        -2.1560014325       17.7558341790       40.7498267938
  H        -3.2662530285       16.9113388113       41.8681456985
