352
 i =    20500, time =    20500.000, E =        24.9075081407
  H        11.3995012663        7.0474079145       32.3474599599
  C        11.0714773739        5.9893861269       32.2333561575
  H        12.0008644194        5.4759483368       31.9568216357
  C        10.0982268418        6.0830657989       31.0556143812
  C        10.4123240734        5.6515513241       33.6362740428
  C        10.7319667935        5.8784315968       29.6276124283
  H         9.3345806240        5.2999931304       31.1426497896
  H         9.5353454814        7.0421674056       31.0809751388
  H         9.4238874541        6.1051869788       33.7327967178
  H        10.6458150829        4.5951879232       33.8865152299
  H        11.1158397211        6.1698125245       34.3404743481
  C         9.6890045873        5.7275255453       28.5161563073
  H        11.4363676321        5.0549396161       29.6721791952
  H        11.3189070219        6.8032362040       29.4336188202
  C        10.4289707021        5.5489250906       27.2198347827
  H         9.0852309085        4.8940300008       28.7853388165
  H         9.0752311765        6.5942627718       28.4319138567
  C         9.4973739239        4.9208300383       26.1347898963
  H        11.2088314323        4.8230689434       27.4088940086
  H        10.7987458105        6.5097591132       26.8409490012
  C         8.2821620675        5.8039675790       25.7398240855
  H        10.0447355148        4.7754641381       25.2650237005
  H         9.0620221623        4.0030367125       26.5096353517
  C         7.0849964571        5.1033359893       25.0287839174
  H         7.8961697199        6.2428498887       26.6031283914
  H         8.5621797270        6.6792510750       25.1578786183
  C         6.6388674147        3.8023531750       25.6762538391
  C         7.5405086459        4.3636217037       23.7952334682
  C         5.8182525310        5.9655824493       24.8970207532
  C         6.9935125511        2.6983645115       24.9091155891
  C         6.2694438328        3.4853001369       26.9705301075
  C         7.6607715935        3.0350978984       23.7584324538
  C         8.0867981099        5.0437750486       22.7315382350
  H         6.0694378253        6.8560105470       24.2414900369
  H         5.5130585605        6.3134477050       25.9175520821
  C         4.7011957879        5.2549735057       24.2424899607
  S         6.5771356570        1.2131510602       25.6420440047
  C         6.1667895507        2.1129696869       27.1033868657
  H         6.1941331585        4.2877717850       27.6684736954
  C         8.1102040782        2.3771505871       22.6427888087
  H         8.1844649502        6.1137841490       22.8364952491
  C         8.6050620425        4.4069295540       21.6932487636
  H         4.8240944416        4.9597697917       23.1865971617
  H         4.4610440767        4.3421791298       24.7180469685
  C         3.4460992664        6.1106111975       24.3125449214
  C         5.7780426071        1.4656238184       28.3520972468
  C         8.6108793900        3.0172450235       21.5245909755
  H         8.0839125275        1.3206534509       22.5371670525
  C         9.0381747929        4.8042965313       20.4475029374
  H         2.7187502280        5.5263296335       23.7162861871
  H         3.5875870492        7.1011995939       23.9650335267
  C         2.7925942203        6.2332554070       25.7467944304
  C         5.8351461027        0.1082271132       28.6964489770
  C         5.3479419610        2.3425016134       29.4590583566
  C         8.9623907597        2.3189277636       20.2888069010
  C         9.3125968391        3.6966352792       19.6330565650
  S         9.1673455520        6.3150034906       19.6232426132
  H         2.2091983628        7.1374554294       25.6681124042
  H         3.5453051507        6.4953848955       26.4549995218
  C         1.9127647695        5.0452056566       26.0974989940
  N         6.2534145788       -0.9104207639       27.7533142473
  C         5.4845116395       -0.4010664188       29.9271756147
  C         5.0051012608        1.8599006908       30.7061874852
  H         5.2967961590        3.3967204152       29.3084412831
  C         7.7309164593        1.6629674368       19.5416862800
  C        10.2121238622        1.3375223022       20.2770142539
  C         9.7580341833        4.1751812932       18.3714995260
  C         9.6700349027        5.5250073894       18.1625281908
  H         1.1171037143        5.0181203762       25.3568664558
  H         2.5195836404        4.2086318136       26.2627767959
  C         1.1817957472        5.4245596747       27.4376366913
  S         6.1118275621       -2.4090054546       28.5468370261
  N         5.6938587687       -1.7911494064       29.9868636664
  C         5.1194953643        0.4485876732       31.0247237203
  H         4.7411506397        2.6245998569       31.3736319073
  H         7.3216110911        0.9463141532       20.2273094021
  H         8.1502258823        1.1703535146       18.6777321976
  C         6.5846115096        2.6265675353       19.1749523417
  H        10.5358567731        0.9808517960       19.2807450056
  H         9.9877739338        0.4700740853       20.8820225165
  C        11.4239201669        1.9543877103       20.9894746072
  H        10.0791760304        3.4973265839       17.6140003807
  C        10.0535675868        6.3847628108       16.9516705303
  H         0.4669390914        4.6657960430       27.7027175156
  H         0.6426408838        6.3581364797       27.1729854493
  C         2.0021701731        5.5705713178       28.7431457949
  C         4.9432892710       -0.1961731827       32.3166978009
  H         6.8631446045        3.3824591738       18.4433282008
  H         6.3381292579        3.1851218247       20.0930251553
  C         5.4516755862        1.7625149476       18.5645948704
  H        11.3070983626        1.8662108087       22.0843122651
  H        11.4941656278        3.0216741906       20.8340771089
  C        12.7743825743        1.2631492091       20.7024956247
  C        10.0629760174        7.7989619788       16.8480564482
  C        10.4749249057        5.6504250046       15.7212355872
  H         2.4406216286        4.6107483914       28.9936143572
  H         2.7593600496        6.3956799317       28.7776097262
  C         1.1196559848        5.9043517525       29.9539345909
  H         5.0215321027       -1.2373459170       32.2979850193
  C         4.7327607876        0.3231475446       33.5897120028
  H         4.9494980901        1.2124207807       19.4186294602
  H         5.7939125951        0.9335478970       17.9586757475
  C         4.4962358198        2.5404896183       17.7110664782
  H        13.0578110122        0.5871931926       21.4495828971
  H        12.7647523838        0.7926324820       19.6845111701
  C        13.9588595491        2.2413571722       20.6127324482
  N         9.8982439965        8.7062264610       17.8890667659
  C        10.3772045858        8.4831236692       15.6919960185
  C        10.7926930591        6.3234537001       14.5707624124
  H        10.4363781379        4.5695083414       15.7944327764
  H         0.3468482016        6.5004693746       29.6084601644
  H         0.5124982488        5.0084051262       30.2458584237
  H         1.6204571159        6.2575586691       30.8463023647
  S         4.4285632700        1.9189405431       34.0823325255
  C         4.6952680177       -0.7301911194       34.6752936757
  H         4.4632444189        3.5656092266       18.0737173251
  H         4.7206504303        2.6269235269       16.7028923212
  C         3.0283801647        2.0402276236       17.6873075428
  H        13.5503282970        3.1155140566       20.0593472442
  H        14.7959590350        1.7385812051       20.1571902454
  C        14.4437134693        2.7968833621       21.9959632897
  S         9.9328935751       10.2219441150       17.2585242554
  N        10.4899251765        9.8463184153       15.7599773739
  C        10.6808778297        7.8169046164       14.5009477579
  H        11.0942140303        5.7208972728       13.7680948967
  C         4.3439294424        1.2605054717       35.7142435664
  N         4.4272065777       -0.1179151696       35.8619932941
  O         4.7376130271       -1.9367558538       34.5126628502
  H         2.3624781155        2.7493891063       17.2767500628
  H         2.6313458948        1.9558424804       18.6975264256
  C         2.9554937669        0.6707557277       16.9985956243
  H        15.1670950162        3.5746999106       21.7643620257
  H        13.6231777698        3.3350765429       22.4866845248
  C        15.0478728876        1.7041674916       22.8745651894
  C        10.8788881570        8.6486758576       13.3270246482
  S         3.9417163511        2.2082716224       37.2191113032
  C         4.3801197610       -0.9207720090       37.0505460478
  H         2.1211036937        0.7245344431       16.1885225168
  H         3.8478984526        0.3189432270       16.5568443451
  C         2.4562111560       -0.3660399137       17.9508369945
  H        15.1339811977        0.8566579286       22.2694617288
  H        14.2222309215        1.2134046267       23.4347903904
  C        16.4149065831        1.9335398896       23.5703512038
  H        10.4758327629        9.5763973358       13.4259143782
  C        11.3777306756        8.2389899294       12.0988579895
  H         3.4997845876       -0.5188231599       37.5743463998
  H         4.1883979449       -1.9771958581       36.8847995940
  C         5.6121104163       -0.7438053099       37.9375871277
  H         1.5895619473        0.0401559560       18.4997726768
  H         3.1328454299       -0.5125754608       18.7536632039
  C         2.3009301403       -1.7106737485       17.2114362725
  H        16.4155753513        2.9314216049       24.0397518700
  H        16.4952536607        1.1347505195       24.2635949857
  C        17.4166469438        1.8687086883       22.4504413196
  S        12.0469817915        6.6905404889       11.6626799781
  C        11.3900345127        9.2940076370       11.0806373532
  H         5.3697226689       -0.7885165496       39.0304824545
  H         6.3133960895       -1.5412781947       37.7797919458
  H         6.2442426400        0.1238690165       37.6818888769
  H         1.5429733354       -1.5430917948       16.4254589734
  H         1.8955930244       -2.4031137486       17.9168306121
  H         3.2171811181       -2.1206729672       16.7331647258
  H        18.4189185545        1.8768158675       22.8713572875
  H        17.2636775971        2.6025458720       21.7179539064
  H        17.4279061872        0.8549965657       22.0217795861
  C        12.3502955134        7.4917525207       10.1103441922
  N        11.7835360732        8.7149302680        9.9421203553
  O        11.1653628867       10.4973761298       11.2347967651
  S        13.2026316916        6.7205640698        8.7564584341
  C        11.9169179684        9.4680988823        8.7190398770
  H        12.7031148685       10.2448953861        8.7235893092
  H        12.1629264300        8.7614364275        7.8593876562
  C        10.6332811767       10.0889715717        8.3423300503
  H         9.7918793034        9.7426873744        8.9308650133
  H        10.6975434892       11.1595469243        8.3363618757
  H        10.4951835443        9.6489695998        7.3099663908
  H        -3.5127069939       14.5457675940       16.5854601415
  C        -3.4024161035       13.4533334808       16.7964617480
  H        -4.3344579255       13.1319684937       17.1653418344
  C        -2.3618127079       13.3133121582       17.9226639391
  C        -3.0902691911       12.8551746051       15.3785133142
  C        -2.8539598280       13.7092126650       19.3110218223
  H        -1.8046522942       12.4248865633       17.9404801965
  H        -1.7397523361       14.0820826388       17.6074380190
  H        -2.2324902626       12.1887987458       15.3318877581
  H        -3.8875686413       12.2321015935       15.1067478135
  H        -2.9397637668       13.6050611414       14.6037384448
  C        -1.7548260781       13.6286818798       20.3944244034
  H        -3.5815278534       12.9199145759       19.6737687869
  H        -3.5137769707       14.6332955780       19.1987191060
  C        -2.3181633408       13.6236064735       21.8063473466
  H        -1.0558313878       12.8262559762       20.1765273655
  H        -1.2464405773       14.6644450279       20.3661605119
  C        -1.3648025194       12.8741237773       22.7365499128
  H        -3.2223903833       13.0442489175       21.7197669530
  H        -2.6095170116       14.6300959085       22.0678263419
  C        -0.0294729664       13.7044792674       22.9529066907
  H        -1.8888319991       12.6870494674       23.6482186493
  H        -1.1685385809       11.9053381850       22.1938665933
  C         1.0802860846       12.9765075723       23.7455338398
  H         0.3909382230       14.1448920009       22.0059585829
  H        -0.3592787757       14.5456092917       23.5806696533
  C         1.3405654941       11.6721576573       22.9830942107
  C         0.5936995849       12.2301339932       24.9553308792
  C         2.4244521188       13.8317263200       23.8510108394
  C         1.2120580697       10.5884608407       23.8102191086
  C         1.8294113467       11.1990878109       21.7697022312
  C         0.7415153628       10.8895242886       25.0978392880
  C         0.1082588257       12.9202376780       26.0803886966
  H         2.5232751512       14.3648593433       22.8205787194
  H         2.2834318027       14.5256011941       24.5788739143
  C         3.6835682295       13.0832638291       24.1401189099
  S         1.7450476557        9.0422862681       23.2061615342
  C         2.0211385410        9.8557539381       21.6912723089
  H         1.9413651656       11.9284861184       21.0020516802
  C         0.4048297160       10.2771549266       26.2411050551
  H         0.0219247402       14.0276713902       26.0223804313
  C        -0.2104874513       12.2990606780       27.2248368620
  H         4.1434672770       12.5010458499       23.3144669528
  H         3.5676541490       12.2413815261       24.8459479651
  C         4.7894057454       14.0275676646       24.5518616906
  C         2.5110592605        9.2016065204       20.4530880749
  C        -0.1245204278       10.9599655299       27.3454340317
  H         0.4835106165        9.2436202195       26.3387456848
  C        -0.7103244463       12.6777532489       28.4505671694
  H         5.4781635115       13.5939661087       25.2345384406
  H         4.4579153153       14.9597060099       24.9895437285
  C         5.5311859837       14.4050728687       23.2231990447
  C         2.5003021601        7.8169580892       20.2113006061
  C         3.0287964507       10.0178994261       19.3194599629
  C        -0.5584872019       10.2486110824       28.5329340083
  C        -0.8962432814       11.5950598591       29.2637057080
  S        -1.0735854004       14.1531852205       29.2428060220
  H         6.0404508485       15.3197399492       23.3690949500
  H         4.9252262261       14.5578628343       22.3105215837
  C         6.5626658055       13.4149423006       22.7793443464
  N         2.1521861343        6.8801910040       21.2124012909
  C         2.7341628269        7.2083429683       18.9797684367
  C         3.3600030746        9.3790593935       18.0770253769
  H         3.3074412264       11.0619493781       19.3955763895
  C         0.6427010248        9.4807830869       29.2404658819
  C        -1.8106158238        9.3795855189       28.3951511280
  C        -1.4306164173       11.9139278390       30.5712061529
  C        -1.4547019880       13.2966450727       30.7366878401
  H         7.3427595802       13.2212545066       23.5299408658
  H         6.2486118938       12.3582075431       22.8429043257
  C         7.2525742762       13.6819167966       21.4626642759
  S         2.0412170383        5.4099478860       20.6255674779
  N         2.6092450759        5.7850208845       19.1474913168
  C         3.0728294298        7.9442664301       17.8251062897
  H         3.9172158988        9.9660237763       17.3177241348
  H         0.9318082632        8.7074481095       28.6505466285
  H         0.1810322096        8.9370709593       30.0400535242
  C         1.8171938626       10.3406441434       29.6583478101
  H        -1.4187977243        8.5502066522       27.7907014102
  H        -2.0577070137        8.9024427143       29.3424453209
  C        -3.0393388452       10.1440729524       27.8692357158
  H        -1.6695865445       11.0591812738       31.2262815369
  C        -1.8474245544       14.0916510572       31.9350026609
  H         8.1565763812       13.1400801702       21.3303819797
  H         7.6507604931       14.6908488492       21.4191477191
  C         6.4401503802       13.5164947776       20.1368619901
  C         3.4663709497        7.2589075480       16.6352574503
  H         2.2841904560       10.8671385265       28.8557052577
  H         1.4030984117       11.0348646291       30.3779545006
  C         2.9177271180        9.4790562830       30.3850661870
  H        -2.7045359341       10.6125246349       26.9494610018
  H        -3.2510738824       10.9844862606       28.5776183018
  C        -4.2550280622        9.2692361082       27.6990977836
  C        -1.7931297916       15.5645264275       32.0555784600
  C        -2.0679414928       13.4720980849       33.2253380756
  H         6.0205958962       12.5221541754       20.1303201048
  H         5.5688142451       14.1991442456       20.2779531974
  C         7.3465086745       13.8130475842       18.9922465505
  H         3.4718578822        6.2062211966       16.8224792100
  C         3.7591867615        7.6902619909       15.3598069577
  H         3.0474187036        8.5288387411       29.7964188677
  H         2.5398294648        9.2061770164       31.3758917567
  C         4.1381128351       10.3100183567       30.7086029701
  H        -4.0221619444        8.5516471029       26.8888416930
  H        -4.4482040676        8.6686860727       28.5438227080
  C        -5.4057211854       10.1753053562       27.2765384466
  N        -1.3971959711       16.4301367175       31.0270445295
  C        -2.1065073153       16.2532668141       33.1993634304
  C        -2.3498742601       14.2122395146       34.4003672890
  H        -1.8621787484       12.4435888425       33.3420205751
  H         6.8629439034       13.5550073410       18.0755819820
  H         7.6215454124       14.8561312844       18.8632753289
  H         8.3232906354       13.3271542275       18.9965275771
  S         3.9639710545        9.2941148742       14.9142312139
  C         3.8311378267        6.6549755070       14.2877265810
  H         4.2288813260       11.0700309578       29.9793807275
  H         4.0898773391       10.7634834427       31.6928756582
  C         5.4108569081        9.4699127496       30.4748174584
  H        -5.0723332949       10.8519526269       26.4705797614
  H        -5.6275344192       10.7830789687       28.1821031816
  C        -6.6266126630        9.4319050304       26.7958949847
  S        -1.4562156953       17.9084573784       31.5149401957
  N        -2.0209246527       17.6213651144       33.0500863837
  C        -2.5414829952       15.6755145435       34.4100072498
  H        -2.4318608098       13.7712553416       35.3943964675
  C         4.1140874954        8.6585095923       13.2374520294
  N         4.0314848536        7.3338518826       13.1362378480
  O         3.5548916390        5.4698831077       14.3696264915
  H         6.3029916728       10.0828604259       30.5583812150
  H         5.5058924240        9.1259285452       29.4064647690
  C         5.4889507112        8.2700083257       31.3998097102
  H        -6.5092287267        9.1439658799       25.7856726023
  H        -6.8341502840        8.5516396438       27.3878173052
  C        -7.9213379993       10.2981510733       26.9716628995
  C        -3.0381827081       16.4231412130       35.5166637560
  S         4.2250400746        9.7030873205       11.7808538450
  C         3.8885815602        6.6569235076       11.7975297847
  H         5.7658628244        8.4842795038       32.4191290830
  H         4.5592930264        7.7929163501       31.3183565156
  C         6.6833674673        7.4325034954       30.7805796145
  H        -7.6948109753       11.3467291151       26.7855322465
  H        -8.0978882062       10.1860660246       28.0286643651
  C        -8.9945344100        9.7233254519       26.1091416114
  H        -2.7130020814       17.5119045799       35.4055242318
  C        -3.5446871121       16.0564307478       36.7817920154
  H         4.0959242673        7.2895437147       10.9206092303
  H         4.5804892232        5.7653889038       11.9092011926
  C         2.5055121143        6.1869887236       11.5926238241
  H         7.0651213497        6.8136738255       31.5328171366
  H         7.4840770272        8.0268638101       30.4825971361
  C         6.1746945993        6.5193623233       29.6490549476
  H        -9.1065610471        8.6363053277       26.3506393846
  H        -9.8797134654       10.3567140418       26.2084608876
  C        -8.7482906583        9.9456126249       24.6213725019
  S        -4.0035565342       14.4666118513       37.2928083229
  C        -3.5818996541       17.0869869132       37.8245559317
  H         2.1990831069        5.3208620992       12.1718899631
  H         1.7681146149        6.9270914727       11.8165713491
  H         2.2488018306        5.8674433421       10.5951559094
  H         6.9226345556        5.7510363152       29.4302885185
  H         5.8547361247        6.9963733468       28.6930129075
  H         5.3606606466        5.9537908741       30.1186176057
  H        -8.6229465235        9.0588826264       24.1110204252
  H        -7.7473801057       10.4687204804       24.4003148748
  H        -9.5834923621       10.5875203123       24.1232018599
  C        -4.2876770253       15.2158098056       38.8393876043
  N        -4.0514628924       16.5188975411       38.9600903735
  O        -3.2845139284       18.2288964399       37.6398793877
  S        -4.5004560766       14.2723321714       40.3018973826
  C        -4.1067811834       17.2866670885       40.1689770437
  H        -4.5048128277       18.2893605285       40.0315997463
  H        -4.8531988417       17.0151563913       40.9237387763
  C        -2.6918912964       17.3972519936       40.9169908259
  H        -2.8349107156       17.1060611662       41.9535288161
  H        -2.0873993798       16.5379258397       40.5147281046
  H        -2.1861098476       18.3973202602       40.7916176214
