352
 i =    42100, time =    42100.000, E =        24.8897959752
  H        11.8577660680        7.7160168878       31.8940763730
  C        11.6225636139        6.6894671717       31.6423278291
  H        12.1768897156        6.3114669960       30.8910983349
  C        10.2950739108        6.5097276653       30.8912818144
  C        11.7103510406        5.7372087969       32.8754100383
  C        10.3563808425        6.7348163583       29.4246695424
  H         9.9042436589        5.4855651722       31.1148339367
  H         9.5240976606        7.1271208823       31.3803716850
  H        10.8986607209        5.0315312901       32.8927263225
  H        12.6530782624        5.1935989523       32.9354694997
  H        11.5770994976        6.3052960323       33.7601681093
  C        10.8444013668        5.6176419313       28.5444337863
  H        10.9242744807        7.6610743157       29.1431647991
  H         9.3440132248        6.8631980950       29.0107380498
  C        11.0122745148        6.0432373319       27.0892991136
  H        11.7491336174        5.2188549849       28.8571484058
  H        10.1568423721        4.7213914789       28.6981504366
  C         9.9024231158        5.4310399697       26.0855518548
  H        12.0256543234        5.7233830266       26.8073238769
  H        11.0961651106        7.1019746821       26.9003063763
  C         8.6528222506        6.2490031245       25.9521724348
  H        10.3007053164        5.3228736653       25.1227516182
  H         9.6551983302        4.3716435824       26.2517053956
  C         7.4418425221        5.5292349814       25.2680345252
  H         8.4669760835        6.4342658696       26.9365947698
  H         8.7877615005        7.1954467131       25.3641698812
  C         7.1390975280        4.0876309296       25.9315536487
  C         7.7931418210        4.7408346439       23.9896269728
  C         6.1828968090        6.4430363789       25.0886645702
  C         7.2648478644        3.0071014081       25.0584277950
  C         6.7350820056        3.6633429673       27.1996717230
  C         7.7418120414        3.4360621040       23.8254660504
  C         8.2931928431        5.4327226492       22.8678595030
  H         6.3764120271        7.2497388485       24.4055551803
  H         6.0405823443        6.9262708119       26.0222745923
  C         5.0090106627        5.6734046602       24.5352138400
  S         6.7551985492        1.5906688290       25.7337088350
  C         6.5304133548        2.3272031162       27.2453530471
  H         6.5228748365        4.5185265052       27.8869614858
  C         8.0043449395        2.8513419390       22.6253942034
  H         8.3732459658        6.4909684109       22.9309346611
  C         8.6714981848        4.8049909594       21.7115596093
  H         5.4752117109        5.5355093097       23.5231922827
  H         4.7902996461        4.7105800035       24.9223599333
  C         3.6979269289        6.5070558563       24.4479657676
  C         6.0160484944        1.6462757506       28.4296780543
  C         8.5446188413        3.4893671285       21.5108900658
  H         7.8386429237        1.8166761685       22.6079177065
  C         9.0446932398        5.2319819171       20.4554863694
  H         2.9033584004        5.9934837920       23.9672094926
  H         3.8054035863        7.4062328331       23.7518280914
  C         3.1213362091        6.8556026826       25.7371492773
  C         5.9346427937        0.2238828707       28.6350448532
  C         5.5972367645        2.5151604256       29.5926797759
  C         8.9514795162        2.8145493185       20.2517524815
  C         9.2220106952        4.1785569917       19.6068433104
  S         9.2022677854        6.7822033711       19.7715064807
  H         2.3567276704        7.6731178144       25.7990569832
  H         4.0117486614        7.2226069883       26.3218411516
  C         2.3546844058        5.6379500427       26.2966605917
  N         6.3304856085       -0.7509588623       27.7181939463
  C         5.6220360475       -0.3136304035       29.9018349838
  C         5.1016314765        1.9557915626       30.7667562434
  H         5.6427201285        3.5834628026       29.5653185058
  C         7.8350865298        1.9363756873       19.5962474952
  C        10.2033610776        1.9981261084       20.5208391932
  C         9.5924894654        4.7144406130       18.3007918100
  C         9.5798486895        6.0704203163       18.2386957345
  H         1.5189981386        5.3778363495       25.7174751663
  H         2.9594350782        4.7933503410       26.3850743011
  C         1.8190824180        5.8081252817       27.7233005612
  S         6.2426521774       -2.1832996979       28.4705857001
  N         5.7390611320       -1.6726923174       29.9285458510
  C         5.2667048294        0.4980943611       30.9894765480
  H         4.8606721557        2.6432684803       31.5849706636
  H         7.6193091210        1.0379880463       20.1708938005
  H         8.3034110427        1.6326913563       18.6598997985
  C         6.4791425051        2.5475068408       19.4189153459
  H        10.4063468234        1.4231843998       19.6360503206
  H        10.0010334486        1.1175283071       21.1978896483
  C        11.4614796985        2.7830466616       20.9582590617
  H         9.6519043912        3.9214686122       17.5355606954
  C         9.9408175470        6.8118926605       16.9814353440
  H         1.1107935834        5.0207091772       28.0163760923
  H         1.2746956733        6.7278978798       27.7479485278
  C         2.9383576644        5.7456163225       28.8636025626
  C         5.0596635793       -0.1887271473       32.2241780615
  H         6.6037174749        3.4419784481       18.7940522903
  H         6.0610133931        2.8150151079       20.3870611675
  C         5.4364574449        1.5878978468       18.8193451207
  H        11.1671168581        3.4577545045       21.7836913950
  H        11.7455783342        3.5338834027       20.1771294228
  C        12.6802919555        1.8936120266       21.2746235471
  C        10.0142119680        8.1532359977       16.7688337047
  C        10.1096517121        6.0752603860       15.6766389872
  H         3.4741608423        4.7668881589       28.9474335597
  H         3.6985940273        6.5117012814       28.5444761615
  C         2.5864163992        6.2184035458       30.2224860173
  H         5.0020490175       -1.2408212987       32.1441151234
  C         4.7610021128        0.1301733879       33.5044592278
  H         5.0549947658        1.1588172868       19.7576665138
  H         5.9768399608        0.8607941075       18.1980690608
  C         4.3157607386        2.3513654270       18.1662229145
  H        12.6208602285        1.5122343883       22.2455492824
  H        12.5883110003        1.0654773225       20.5614575193
  C        14.0395896592        2.5573982328       20.9802266053
  N         9.7411249705        9.0392840520       17.7981323876
  C        10.4389237006        8.8335319247       15.6461839354
  C        10.5105747169        6.6609209862       14.5182259803
  H        10.1513425178        4.9545087687       15.6794817888
  H         2.2134313956        5.2945470777       30.6706618692
  H         3.3818159272        6.7236757562       30.8054507413
  H         1.7449427558        6.9401292733       30.2515494516
  S         4.4643884413        1.7375006033       34.1423344734
  C         4.7445578351       -1.0026067475       34.4803014110
  H         4.0117886889        3.0586595695       18.9037673934
  H         4.5491219227        2.9806523495       17.3299417532
  C         3.0874809640        1.4343006890       18.0496272952
  H        14.0067202197        3.2176938735       20.1106454885
  H        14.8119305395        1.8206910524       20.6843765081
  C        14.5605322288        3.3263981353       22.1298826439
  S         9.9331747570       10.5768915173       17.2098388564
  N        10.5202598477       10.2357882193       15.7804896483
  C        10.6727031880        8.1350717076       14.4166947249
  H        10.5859849048        5.9682428628       13.6457760503
  C         4.3278554646        0.9439911250       35.6911555137
  N         4.5283969583       -0.4164828601       35.6727911584
  O         4.9254883931       -2.1997578091       34.2436174468
  H         2.2105012087        2.0724178611       17.8573698852
  H         2.8800553073        1.0453794488       19.0616844507
  C         3.2426628035        0.2879396137       17.0067431554
  H        15.2470132005        4.1366017455       21.8745482035
  H        13.6875403454        3.7305627445       22.6867310785
  C        15.2208973838        2.3744596155       23.1419420797
  C        11.0794160283        8.8951094541       13.2706432159
  S         4.2391071920        1.7611155745       37.2841936841
  C         4.6301367189       -1.1540145899       36.8635865920
  H         2.5118046729        0.3667740901       16.1830432631
  H         4.2108710009        0.5457649446       16.5840804943
  C         3.1519086510       -1.0822472158       17.6308026420
  H        15.1799154901        1.3870367030       22.8719759199
  H        14.6151607500        2.4120159087       23.9470316680
  C        16.6531182240        2.6383678699       23.4827872772
  H        11.1163958948        9.9627531065       13.3405867222
  C        11.6220538206        8.4766962328       12.0841539276
  H         3.9854441976       -0.8228160398       37.7448479602
  H         4.1652586500       -2.1160503462       36.7078016031
  C         6.1443664142       -1.2591151857       37.2282962675
  H         3.3545729445       -0.9802392178       18.6960322257
  H         3.8864779122       -1.7566349273       17.2407918170
  C         1.8100593266       -1.6582207548       17.3750037873
  H        16.7513791452        3.6274715154       23.7655624297
  H        17.0198415078        1.9914085842       24.2807993439
  C        17.6010015870        2.4035314847       22.2471397081
  S        11.9779543364        6.8538013534       11.5363277406
  C        11.7800765806        9.5097293323       11.0073745266
  H         6.5042994714       -2.3366713411       37.2863304881
  H         6.7571751936       -0.7548221820       36.4598487221
  H         6.4364646137       -0.7368841020       38.1387352854
  H         1.7120828734       -2.7826457250       17.4398347440
  H         1.4802787747       -1.4878956438       16.3588678757
  H         1.1129513595       -1.1821706206       18.0435648800
  H        18.6583295606        2.2827902094       22.5509443010
  H        17.7514763574        3.1192902284       21.4050205663
  H        17.3113579814        1.4785091393       21.8292148516
  C        12.4839391634        7.5901067563        9.9588173125
  N        12.3431267525        8.9478735727        9.9043983117
  O        11.4710793303       10.7201001231       11.0850528396
  S        13.0085748475        6.6302426784        8.5223623283
  C        12.4730269695        9.7007073172        8.7127457429
  H        12.8929878091       10.6450811623        8.8384655208
  H        13.2644878489        9.1659216553        8.1558992347
  C        11.1753555780        9.6123089578        7.8835651223
  H        11.1032537141       10.6283132074        7.5487866568
  H        11.0996348818        8.8640948359        7.1009269586
  H        10.2931188971        9.3735360367        8.5117450661
  H        -3.7144616248       12.8425491623       16.7693589720
  C        -2.7954743623       13.0515365639       16.2333294150
  H        -2.1258180518       12.2932873577       16.5839015502
  C        -2.2831327390       14.4035487954       16.7163772623
  C        -2.9675289245       12.9077379113       14.6612297814
  C        -2.5412294103       14.6683604658       18.1854003953
  H        -1.1964786662       14.4968565906       16.4344266349
  H        -2.7428615981       15.2099878570       16.1053140835
  H        -1.9752745875       13.1861947093       14.1609907904
  H        -3.2041787796       11.8697425153       14.4446656840
  H        -3.6723484218       13.5495119863       14.1030189875
  C        -1.8284080725       13.7951944163       19.2184034863
  H        -3.6512926878       14.6111723519       18.3476231824
  H        -2.3762917001       15.7312721815       18.2405184859
  C        -2.5168287726       13.8438010606       20.5708339424
  H        -1.7075268094       12.7462534886       18.8508450539
  H        -0.8171895553       14.2710681095       19.2809338837
  C        -1.6752979982       13.2515567452       21.7592047179
  H        -3.4156622449       13.2437284549       20.6110192725
  H        -2.6977708428       14.8503867782       20.7479577579
  C        -0.5130979128       14.2025416180       22.1101890312
  H        -2.4276973481       13.0777305508       22.5555860039
  H        -1.2885430968       12.2937485495       21.5394219802
  C         0.6092213982       13.4676930214       22.8792905823
  H        -0.0685177031       14.6248868102       21.2285315885
  H        -0.8955233097       15.0131762196       22.7562864371
  C         1.0521682798       12.1224448267       22.1759631717
  C         0.2125639416       12.7121573146       24.0999627666
  C         1.8907042929       14.3403053635       23.2658130553
  C         0.9149760697       11.0148954205       23.0099809708
  C         1.6212255650       11.7378555294       20.9441156010
  C         0.3156200088       11.3744099281       24.1772391845
  C        -0.1255760155       13.3533135952       25.3190843855
  H         2.3413894374       14.9270222000       22.4749954916
  H         1.7389700428       15.0845503075       24.0493482815
  C         3.0350925359       13.4628541122       23.7868462649
  S         1.4778964831        9.5305095290       22.3326479703
  C         1.8779953165       10.4014065876       20.9328287185
  H         1.7621415697       12.4306734692       20.1346717963
  C        -0.0057315010       10.7089237773       25.3024415950
  H        -0.0942208105       14.4436632671       25.3556742466
  C        -0.4233155652       12.6798911299       26.4959214399
  H         3.2411808025       12.6369373156       23.1401392459
  H         2.8044597272       13.0921127525       24.7751058459
  C         4.3758646049       14.2460254584       23.8504746992
  C         2.3923091975        9.6409953503       19.7726802148
  C        -0.3475992631       11.3215392395       26.5472864177
  H         0.2297598296        9.6869361805       25.2051020286
  C        -0.6679976361       13.0415882511       27.7732253481
  H         5.1375022710       13.6368197460       24.3951294580
  H         4.2029931672       15.2337905224       24.3095765259
  C         5.0640463355       14.3039178330       22.4951066999
  C         2.3260435636        8.2395285257       19.6090326017
  C         2.9598327563       10.4976536456       18.6743682823
  C        -0.5447418711       10.5942719308       27.8692414247
  C        -0.8157465791       11.9346459397       28.5727865450
  S        -0.8444608826       14.5315450163       28.6272257389
  H         6.1418525246       14.6574140635       22.6012960238
  H         4.5061868399       15.0576866154       21.8689291812
  C         5.2646047272       13.0421411995       21.5973887943
  N         1.8312717892        7.3143947625       20.5936519843
  C         2.6899501983        7.6297692226       18.3995823203
  C         3.3685937724        9.8370368761       17.5003523401
  H         3.1188256574       11.5145476905       18.7347841159
  C         0.6394536192        9.8408590637       28.4490135485
  C        -1.7899717313        9.7223967318       27.8842951705
  C        -1.1751282880       12.3416827598       29.8953147034
  C        -1.2384077458       13.7182391029       30.0992915367
  H         5.1515668356       12.0694395453       22.0377045495
  H         4.6001202200       13.2222865508       20.6937655877
  C         6.6715877379       13.0099182701       20.9949398064
  S         1.8465833634        5.8357720087       19.9087503654
  N         2.5250564117        6.2006191608       18.4759352490
  C         3.1886240957        8.3332924486       17.3254824434
  H         3.8198705310       10.4791231364       16.8222820038
  H         0.9556634920        9.1045354130       27.6677852670
  H         0.3800127482        9.2242965241       29.3311150980
  C         1.8365139053       10.7355451941       28.9349845327
  H        -1.6903717059        8.9677035180       27.0566607135
  H        -1.9412095940        9.1254235501       28.7180822350
  C        -3.0852150510       10.6389372797       27.5642380492
  H        -1.2135412686       11.5919853745       30.6435594254
  C        -1.6497419815       14.4259930675       31.3752698147
  H         6.8036040360       12.0773804693       20.4868307746
  H         7.4172140403       12.9792438913       21.7668162817
  C         7.0620283064       14.1365774431       20.0468247520
  C         3.3960587729        7.5566953797       16.1298689693
  H         2.2017102742       11.2276901073       28.0467975367
  H         1.5021290925       11.4923365243       29.5599767816
  C         3.0263886566        9.9254873692       29.6216215446
  H        -2.9371952895       11.2798228823       26.6493546244
  H        -3.4280695556       11.3318833497       28.3442674560
  C        -4.2861363257        9.7296115095       27.3414760745
  C        -1.7171376485       15.7974073077       31.5850976105
  C        -1.9013533015       13.5587130352       32.5340559361
  H         6.3869198337       14.9669580064       20.2418761935
  H         8.0314476195       14.5746083928       20.2900579740
  C         6.9866306710       13.8281285207       18.4999514410
  H         3.2455540232        6.4439970558       16.1433705890
  C         3.7899787797        7.9596441086       14.8667562018
  H         3.4062851142        9.2195222068       28.8226331107
  H         2.7112331068        9.2653113261       30.4114537936
  C         4.1564427607       10.8818421565       30.1532077589
  H        -4.1051455748        8.9910184473       26.5533156841
  H        -4.4973349374        9.1455231417       28.2317242363
  C        -5.5012306889       10.5505060063       27.0697021575
  N        -1.5118262761       16.7911928076       30.6015106099
  C        -1.9222223347       16.3360962683       32.8135395241
  C        -2.1218512369       14.0916906930       33.7872194362
  H        -1.6951342855       12.4952568751       32.4160845737
  H         7.4376988880       14.6667946389       17.9499317217
  H         7.5632680129       12.9011372443       18.3146549592
  H         5.9695757723       13.6590494949       18.2056832944
  S         4.1250728089        9.5325054192       14.3305076249
  C         3.8050184615        6.9539943076       13.7615148182
  H         4.1293216385       11.7992400103       29.5627294705
  H         3.9404304699       11.3644510852       31.1248795103
  C         5.5088086694       10.1395126504       30.1500463678
  H        -5.3401858486       11.3185192020       26.2987224684
  H        -5.6396000776       11.1076338872       27.9902743272
  C        -6.6378316115        9.7347895513       26.4284767158
  S        -1.3758933416       18.2395272507       31.3642446078
  N        -1.8531702589       17.7152252386       32.8195063232
  C        -2.2706125592       15.5792880239       33.9859943449
  H        -2.0802265411       13.3276574267       34.5516112428
  C         4.2219971852        8.9018891463       12.6816711775
  N         4.1598533302        7.5341637262       12.6051120566
  O         3.6159036296        5.7477734655       13.9490308256
  H         6.1393177866       10.7337218604       30.8407143677
  H         6.0700118231       10.1468123961       29.2312292580
  C         5.3876766395        8.7664987309       30.6276272546
  H        -6.2229240740        8.9168351515       25.7527406216
  H        -7.2929799692        9.2560660945       27.1711463883
  C        -7.5772931176       10.6180833340       25.6318297075
  C        -2.4784252960       16.2948946351       35.1967217302
  S         4.5880254510        9.7954130179       11.2148330417
  C         4.2220161707        6.8148563959       11.3508534565
  H         4.5522957821        8.7019284129       31.3475896856
  H         5.0406595086        8.1336793488       29.8251380920
  C         6.6162860032        8.1052008586       31.1888581719
  H        -7.3991476324       10.4645081076       24.5715187226
  H        -7.2623233851       11.6916948716       25.7223759608
  C        -9.0897777607       10.4006753917       25.8935952169
  H        -2.5033821733       17.4259719688       35.1474599416
  C        -2.9490113161       15.8020239349       36.3566680127
  H         5.0367268700        7.2224373405       10.7417514126
  H         4.5504821978        5.8065164336       11.6098670601
  C         2.8709731619        6.6429959161       10.6518960765
  H         6.9056462710        8.5426703880       32.1585970732
  H         7.5039727625        8.0161421280       30.5681216130
  C         6.2438089769        6.6150775113       31.5022684079
  H        -9.7063616891       10.7793068117       25.1458332483
  H        -9.3671493905        9.3984139365       25.9914836715
  C        -9.3602144743       11.1086333373       27.2718257864
  S        -3.4994989122       14.2172557289       36.7430953920
  C        -3.0505189924       16.7887718875       37.4586209785
  H         2.6298335306        5.6099187308       10.4691966532
  H         2.1251925188        7.0872521927       11.2859377176
  H         2.8305109978        7.2320931662        9.6565788567
  H         5.7772638227        6.6974174988       32.4284721781
  H         7.1620201286        6.0145807924       31.5702310781
  H         5.6016582470        6.1659104933       30.7212614236
  H        -9.3317005704       12.1597048499       27.0562915902
  H        -8.6917447296       10.9413286232       28.1156541898
  H       -10.2517349171       10.7114779157       27.5705110059
  C        -4.0874101258       14.9645199043       38.2840205807
  N        -3.8873607945       16.2854222228       38.3949553775
  O        -2.6101681783       17.8816990558       37.3405860390
  S        -5.1445275044       14.2546913974       39.5170441429
  C        -4.0418536745       16.8553355578       39.7243630062
  H        -4.0134662224       17.9372489452       39.4935731981
  H        -5.0292501421       16.6651304557       40.1583656176
  C        -2.8670981939       16.4987539152       40.5974105505
  H        -2.3320916541       17.4748051348       40.5751069134
  H        -3.2071151251       16.3224918481       41.6005721019
  H        -2.2875720973       15.6170200122       40.2785258957
