352
 i =    26900, time =    26900.000, E =        24.9200497131
  H        12.1661147495        6.8249553987       32.1735155856
  C        11.6733468421        5.8895501611       32.2060149472
  H        12.4029324085        5.1235729582       31.9938260016
  C        10.6224480375        5.9473525020       31.0958619552
  C        11.1771336471        5.7783794267       33.6275902598
  C        10.9623132629        6.2822689294       29.6905375399
  H        10.1917795216        4.9874933446       31.0498664744
  H         9.7275234965        6.5632728484       31.3275701765
  H        10.0335034270        5.6804923246       33.5523452236
  H        11.5460172917        4.8878265596       34.1528593196
  H        11.2994930355        6.7285685203       34.1865229706
  C        10.5813784136        5.1715792806       28.6984952609
  H        12.0383783863        6.4635590742       29.4666167086
  H        10.5476300001        7.3166556168       29.4837814161
  C        11.0317442335        5.6251044545       27.2825270807
  H        11.1783945549        4.2591144097       28.8921436460
  H         9.5534413551        4.8334642993       28.8321981772
  C        10.0329332711        5.2634004231       26.1519443212
  H        11.9514756372        5.1281653785       27.0507912881
  H        11.1961463401        6.7049381627       27.2580701988
  C         8.6814397852        6.0045808466       26.2288892050
  H        10.3882664180        5.5214486733       25.1622542524
  H        10.0704210886        4.1742439931       26.1722841535
  C         7.6921702562        5.2373435414       25.2913044748
  H         8.1970682116        6.0803931630       27.2174527179
  H         8.7836607906        7.0185772983       25.7813977339
  C         7.3881261256        3.9240557333       26.0204828056
  C         8.1052647127        4.5035154142       24.0700298122
  C         6.2713555435        5.9760674648       25.0664781812
  C         7.5600969709        2.8194248986       25.1867216726
  C         6.9784333017        3.4358450766       27.2520305655
  C         7.9577831595        3.1497353166       23.9353399119
  C         8.4474017680        5.1989063929       22.9438387551
  H         6.3318651841        6.7241664896       24.2458864239
  H         5.9344380225        6.4062419348       26.0321194053
  C         5.0157306534        5.0755483618       24.7216470531
  S         7.1440422256        1.3038864480       25.9021293423
  C         6.6665011414        2.1136044183       27.3090020385
  H         6.6706820619        4.1275313438       28.0155535572
  C         8.2966962969        2.6046401942       22.7110322075
  H         8.7101486402        6.2356406854       23.0740025133
  C         8.7600172471        4.6604448249       21.7189303235
  H         5.2509910347        4.5642153141       23.7467293148
  H         4.8254727575        4.2761555669       25.3864449036
  C         3.7775557729        5.9236376549       24.5948264821
  C         6.0777638025        1.3718328815       28.4781747109
  C         8.7904621082        3.3252958465       21.6035121555
  H         8.4114274796        1.5143258709       22.5578742513
  C         9.0546404677        5.0695526850       20.4530577743
  H         3.0664134720        5.3423803317       23.9664819620
  H         3.8590779876        6.9437952805       24.0665561541
  C         3.0002086812        6.1647642755       25.8987998615
  C         6.1356394747       -0.0516276894       28.6957989738
  C         5.5957349785        2.1809911817       29.5592316861
  C         9.1390062565        2.5848678481       20.4021063786
  C         9.2923998163        3.9664597535       19.6092379620
  S         9.1199148721        6.5530018285       19.6151375412
  H         2.1793286306        6.7618317032       25.6469431668
  H         3.6304339669        6.6949119884       26.6538942271
  C         2.3972149893        4.9987668802       26.5174563558
  N         6.6837105633       -1.0457795196       27.8107366939
  C         5.7814902415       -0.6228375594       29.8962540342
  C         5.1503048141        1.5089414717       30.6939953211
  H         5.5210845852        3.2799738085       29.4730579556
  C         7.9780726237        1.8076217487       19.8100539592
  C        10.5291222801        1.8522126201       20.4344817793
  C         9.6874058600        4.3829880812       18.3206998800
  C         9.6885980038        5.7571219385       18.1934067928
  H         1.6105351540        4.6357101890       25.8368574324
  H         3.1305441457        4.2333050794       26.4443910761
  C         1.8403693499        5.1888436012       27.9627946144
  S         6.5867944380       -2.5151067945       28.5493437599
  N         6.0255005323       -2.0021997042       29.9824460992
  C         5.3497009670        0.0973787451       30.9972026289
  H         4.5902969295        2.1036857183       31.4082016538
  H         7.8102803228        1.0559839294       20.6010053984
  H         8.4181420246        1.4296239752       18.8805982517
  C         6.6930191432        2.6811822491       19.6552704256
  H        10.7071691786        1.4273020332       19.4696905851
  H        10.5131598855        0.9911175767       21.0994731336
  C        11.7841749613        2.7200694969       20.7656367805
  H        10.0123704776        3.6197829606       17.6333795330
  C        10.0475203210        6.5712498938       17.0128233975
  H         1.1033594168        4.4065457742       28.0586243024
  H         1.3764995570        6.1621454731       28.0321734199
  C         2.9475633319        5.1753134298       29.0053451644
  C         5.0680820216       -0.5070363711       32.2947080380
  H         6.7429753869        3.6309368453       19.0997570306
  H         6.2471724394        3.0005474493       20.6461020296
  C         5.6021389697        1.8416455814       18.9722457718
  H        11.5793683224        3.3171675496       21.6312573063
  H        11.9806748173        3.4841000696       19.9606515388
  C        13.0164831271        1.7921490878       20.7991891142
  C        10.0654400418        8.0320165411       16.9221439952
  C        10.3149803961        5.8175811708       15.7732628677
  H         3.6977579076        4.3669961925       28.8503164508
  H         3.6004158832        6.1003094639       29.0062444604
  C         2.3667110218        5.0585416962       30.4171809723
  H         4.9409049996       -1.5857113596       32.2492635384
  C         4.8513219575       -0.0974636082       33.5315063431
  H         5.3511929133        0.9096496457       19.4725372560
  H         6.0662083252        1.5071804963       18.0795004692
  C         4.3222440956        2.6441936304       18.5975457784
  H        12.9197468692        1.1386787968       21.6089431558
  H        13.0258493492        1.1601828823       19.9195231609
  C        14.2633067158        2.6302120576       20.8662813122
  N         9.8248761385        8.9969468629       17.9536141039
  C        10.3707286975        8.6145352802       15.6947821509
  C        10.5702743173        6.4865304276       14.5782272796
  H        10.2734920408        4.7358505577       15.7043070646
  H         1.3353181629        4.8285752461       30.6164295444
  H         3.0482268045        4.3404557711       30.8958614327
  H         2.4224112881        6.0780496687       30.7921798454
  S         4.8446916739        1.5485498379       34.0631902013
  C         4.6628904049       -1.1220704101       34.5726213546
  H         4.0925673038        3.3851123748       19.4006018307
  H         4.4561677504        3.1666626276       17.7014447081
  C         3.1459762259        1.6277384872       18.3194898508
  H        14.3418592000        3.3528372324       20.0674325701
  H        15.0360196168        1.8834555945       20.9316336680
  C        14.3104609415        3.3673685947       22.2001674585
  S         9.9989567349       10.4769474228       17.2519366061
  N        10.4816329154       10.0178963263       15.7845255102
  C        10.6433835939        7.9115881980       14.5124556144
  H        10.6646726512        5.9638544191       13.6716872472
  C         4.3696227193        0.9230231273       35.5833636915
  N         4.3276887318       -0.4316178767       35.6475924344
  O         4.6925357931       -2.3250107017       34.3604399400
  H         2.2427960501        2.1648479768       18.0764160659
  H         2.9254823344        1.0694707039       19.1557819012
  C         3.3488478121        0.5014162562       17.3749915057
  H        15.0495941994        4.1533646130       22.1237590045
  H        13.3967375372        3.8933092065       22.4798264659
  C        14.6897624029        2.5120531668       23.4683030000
  C        10.9717092183        8.6694348710       13.3309616230
  S         3.8283006441        1.8606835072       36.9719241115
  C         4.0637966147       -1.1915456397       36.8488456311
  H         3.1700186388        0.8249043020       16.3182738575
  H         4.3164865521        0.0282835979       17.3799195040
  C         2.3442608381       -0.6732758701       17.5795315167
  H        14.4345417341        1.4816028154       23.3992735275
  H        14.1911105380        2.9610416682       24.3398639190
  C        16.1653064927        2.3498002566       23.8553495523
  H        10.9509431477        9.7550469896       13.5045305471
  C        11.4106861296        8.3558330465       12.0901508614
  H         3.1016040367       -0.8893656809       37.1677980375
  H         3.9396645468       -2.2661172316       36.6419885732
  C         5.1679252082       -0.9526553267       37.9064054958
  H         2.2247779507       -1.2418271871       16.6315527709
  H         1.3536110364       -0.2792766989       17.8278989923
  C         2.6859929621       -1.7407750215       18.5548571550
  H        16.3550250251        3.1024085249       24.5970479397
  H        16.1714337242        1.4388304957       24.2991797020
  C        17.1558184653        2.3377637602       22.7951548913
  S        12.1166534481        6.8654067674       11.6211483448
  C        11.5303464952        9.4979278286       11.1114906108
  H         4.6423284325       -0.7224588400       38.8131657744
  H         5.7619884149       -1.8517931477       37.9756218287
  H         5.9147823903       -0.1974654236       37.6656556959
  H         3.2444814507       -1.4669175478       19.4046273640
  H         3.2880308660       -2.5201862081       18.0420599220
  H         1.7388717541       -2.1160848676       18.9071269446
  H        18.1613479581        2.0813186621       23.1838632243
  H        17.1850285487        3.2462595066       22.1794353039
  H        16.8483697268        1.4930744558       22.1816323350
  C        12.2788250684        7.6624064928       10.0281753781
  N        12.0571717288        8.9726351250        9.9424849661
  O        11.2305503303       10.6559800379       11.3373686265
  S        12.7933001893        6.8274280664        8.5432004399
  C        12.2102700943        9.7804670087        8.7008523748
  H        12.5454490228       10.8256888955        8.9435545927
  H        13.0264931168        9.3896197239        8.0993541696
  C        10.8499038990        9.8236226670        8.0661772860
  H        10.8007565852        9.2734076485        7.1559970940
  H        10.1028388125        9.3413174707        8.7282911712
  H        10.5940476210       10.8831988727        8.0215508015
  H        -3.3927595406       14.5880946907       16.6770008754
  C        -2.8644490731       13.6965104854       16.5161043300
  H        -3.5063043244       13.0220314431       17.0540283621
  C        -1.5552502392       13.8348691176       17.2990833401
  C        -2.8461880614       13.3967201378       15.0263348253
  C        -1.8253050339       14.3552792436       18.7336842475
  H        -0.9560916728       12.9179005767       17.5314993697
  H        -0.8908824646       14.4674812891       16.7392404177
  H        -3.7544425051       12.8528893837       14.7959979639
  H        -2.8917325606       14.2880012451       14.3745585192
  H        -2.0390147594       12.7541087161       14.6196418554
  C        -1.8789728742       13.1581754786       19.6496991427
  H        -2.7260724574       14.9136851166       18.7132752431
  H        -1.0514930163       14.9982023628       19.0882222455
  C        -2.3844352883       13.4324311506       21.1358664974
  H        -2.3696480526       12.2972871618       19.1559250280
  H        -0.9545610727       12.6261507095       19.7197009524
  C        -1.4663736883       12.7535044840       22.1415584534
  H        -3.4202531895       13.0559800083       21.2368989897
  H        -2.3711101491       14.5416756079       21.3001102591
  C        -0.2600676460       13.6455147219       22.4165596766
  H        -1.9872781828       12.7383038598       23.1224567200
  H        -1.2426177756       11.7576762197       21.7661992264
  C         0.9997457638       12.9428077691       23.1044020626
  H         0.0810696200       14.1450820336       21.5393046865
  H        -0.5509991503       14.5064087418       23.0419663590
  C         1.2907736361       11.6077439119       22.4242542940
  C         0.6345355954       12.2915918986       24.3822882429
  C         2.2847207654       13.8422983188       23.0778775793
  C         1.1604867469       10.5205839474       23.2815324273
  C         1.8991437614       11.2580809773       21.1589916446
  C         0.6734084844       10.9173270517       24.5052070074
  C         0.1468618957       13.0036166280       25.5054813567
  H         2.4521224831       14.1762689514       22.0365081420
  H         2.0998412205       14.7559122029       23.6987164253
  C         3.5293173960       13.2356931615       23.6977710564
  S         1.4728367807        9.0279918688       22.4674336092
  C         2.0943747139        9.9256903451       21.0160204723
  H         2.1225378861       12.0331408547       20.3971775625
  C         0.3670917300       10.3638257927       25.7142822240
  H         0.1057478900       14.0770079629       25.4896519393
  C        -0.2442029861       12.3915543165       26.6396894524
  H         3.7684857126       12.3405541920       23.1736634515
  H         3.4083394187       12.8539481861       24.7180062732
  C         4.7598194067       14.1211291560       23.7248294652
  C         2.6068196654        9.3043838292       19.8102183913
  C        -0.2037693340       11.0266198236       26.7846988986
  H         0.3269725101        9.2466038879       25.8266460032
  C        -0.6469345478       12.7620041409       27.9037479399
  H         5.5387048870       13.5159424997       24.2417258290
  H         4.7383923175       15.0083316796       24.3668621095
  C         5.2478116550       14.3330876410       22.2929768242
  C         2.5599163659        7.8887810643       19.5143775685
  C         3.1231256610       10.1281756968       18.7633045679
  C        -0.5876247314       10.3089147726       28.0622311865
  C        -0.8512907947       11.6611778151       28.7432774207
  S        -0.8820529473       14.2488954122       28.6848459567
  H         5.8904016022       15.1804756085       22.2648202840
  H         4.4625568381       14.5567278989       21.5589777971
  C         5.8635631423       13.0831307479       21.6642202268
  N         2.2684740414        6.9548183982       20.4567301707
  C         2.8244475684        7.3638433292       18.2491478809
  C         3.3216762438        9.6291482555       17.4578982558
  H         3.3721671763       11.1453112174       19.0046189367
  C         0.6660056360        9.5601057800       28.5506820737
  C        -1.8660114052        9.4512238783       27.8072179401
  C        -1.1265059672       12.0241262051       30.0837979102
  C        -1.2098192774       13.4052754939       30.1913330928
  H         5.9990339622       12.3027648694       22.4842879385
  H         5.1138715052       12.6084833963       21.0409102357
  C         7.2704744371       13.2413463172       21.0778791776
  S         2.2394719191        5.5502366445       19.6848330754
  N         2.8063802831        5.9814177269       18.2289431192
  C         3.1352505569        8.1775160274       17.1375559677
  H         3.8340563468       10.2448403397       16.7884386958
  H         0.7788512542        8.7572328877       27.8444089986
  H         0.4540440513        8.9919216969       29.4648916078
  C         1.9568313784       10.2176775131       28.7554208028
  H        -1.4750560075        8.8217072266       26.9910992159
  H        -2.0662786241        8.7603689875       28.6498097177
  C        -3.1959477236       10.1354084427       27.4745098121
  H        -1.2634970925       11.2782083294       30.8900661452
  C        -1.4487167600       14.1875714860       31.4899874112
  H         7.7511854863       12.3124219057       20.8740251349
  H         7.8888363767       13.6232575310       21.8844143103
  C         7.3489076466       14.0865488071       19.7289232571
  C         3.4404947898        7.5326800660       15.8887424992
  H         2.3716283413       10.4242181629       27.7993818909
  H         1.7999489098       11.2014053404       29.2873192369
  C         2.9782199003        9.3700236827       29.4995971940
  H        -3.1825697826       10.6079703351       26.4927099086
  H        -3.3536200826       10.9816028844       28.1227111129
  C        -4.3230289395        9.0857295453       27.6533294459
  C        -1.6277276134       15.6061814722       31.5855371487
  C        -1.6825758172       13.3737787209       32.7707868189
  H         6.7611238981       15.0559638081       19.8539199698
  H         8.3667031523       14.3888020483       19.4408080882
  C         6.6474184691       13.3605329102       18.5484166464
  H         3.5146908244        6.4889595919       15.9774671855
  C         3.6457106492        8.0811216442       14.6356875415
  H         2.8552973955        8.3912348388       29.0584916770
  H         2.5775731909        9.2469826610       30.5037565553
  C         4.3463213249        9.9617467562       29.6389248105
  H        -4.0571218218        8.1402654620       27.1170499052
  H        -4.3391351649        8.8265242600       28.6883406372
  C        -5.7138328817        9.5812352207       27.1725268178
  N        -1.2909530928       16.5166237919       30.5580379755
  C        -1.9748916612       16.1914149358       32.7287118687
  C        -1.9882708473       14.0517041403       33.9256438511
  H        -1.4717272991       12.2992026636       32.8248933958
  H         7.2711026390       12.7156813525       17.8657224455
  H         5.8707387695       12.6269689030       18.8364841171
  H         6.2180638028       14.2150766482       17.9614054453
  S         3.8452889271        9.7717451672       14.1894486640
  C         3.7663450146        7.0829790966       13.4835367211
  H         4.4828065848       10.7615670274       28.9387733678
  H         4.5167559497       10.4042095581       30.6370568814
  C         5.4316093487        8.9499192516       29.3263660193
  H        -5.9448225057       10.5489506481       27.6327732467
  H        -6.5202838331        8.9632234997       27.4448392407
  C        -5.8827015585        9.9792245319       25.7177246671
  S        -1.5357453351       18.0156124828       31.0792738696
  N        -1.9889883210       17.6287691307       32.6331673304
  C        -2.2205242696       15.5318503506       33.9287168424
  H        -2.1006133685       13.5228119741       34.8495226891
  C         4.1080546833        9.0940158146       12.5513858030
  N         4.1426890288        7.7464479655       12.4078628785
  O         3.7507471233        5.8808671300       13.7126127770
  H         6.3823548815        9.5314709473       29.0515235581
  H         5.1769860135        8.4456354668       28.4198669901
  C         5.4907331038        7.8916665937       30.3866958138
  H        -4.8945177539       10.3752108482       25.4366929795
  H        -6.0309890973        9.0183564000       25.1264019663
  C        -6.8850246454       11.1510025346       25.5474646266
  C        -2.4191380882       16.2210070460       35.1306599419
  S         4.7379662816        9.9285940617       11.1630495030
  C         4.1299797095        6.9915861349       11.1973348841
  H         6.0127500821        8.3822681166       31.2008591040
  H         4.5601847436        7.6794209252       30.7637271623
  C         6.4571724320        6.7381399807       30.1213547843
  H        -6.9417629362       11.3449935322       24.4836587673
  H        -6.5100967579       12.1675767868       25.9740626247
  C        -8.2075403062       10.8727955018       26.3280333450
  H        -2.1449836349       17.2141249378       35.0776735993
  C        -2.8730569566       15.8428505096       36.3457704493
  H         4.6785450270        7.4393487362       10.3559665228
  H         4.5466587595        5.9815345470       11.3810494889
  C         2.7913552329        6.8442618687       10.5373076371
  H         7.4173360120        7.1483034525       29.8560120148
  H         6.0949120606        6.1104566653       29.3237173911
  C         6.5136531999        5.8251800208       31.3391653809
  H        -8.0229901170       10.6359224678       27.4053964389
  H        -8.7582704114       11.9132416454       26.4081437020
  C        -9.0066248316        9.7185719906       25.7370074017
  S        -3.3808637003       14.3521868583       36.8574486095
  C        -2.9614722185       16.9637396393       37.3090957423
  H         2.4234298460        7.7520003500       10.0526655396
  H         2.8320119528        6.0943227524        9.7804050709
  H         2.0003593782        6.5845307586       11.1556103231
  H         5.5574695940        5.4710492016       31.6549215799
  H         6.9543124051        6.1885486528       32.2508936711
  H         7.0665200718        4.9397977129       31.0621618900
  H       -10.0230916679        9.9764445298       25.6737058284
  H        -8.8314064568        8.7471834863       26.2700246204
  H        -8.7365646543        9.5236742044       24.6567646786
  C        -3.5589562844       15.1087858754       38.4429842454
  N        -3.5129542276       16.4593014380       38.4721294742
  O        -2.4401281958       18.0437431892       37.1336452028
  S        -4.4144764568       14.2955734389       39.8295325442
  C        -3.7193647132       17.2562981618       39.6679628176
  H        -4.0583900549       18.2229392850       39.2765481566
  H        -4.5777077700       16.8073429950       40.2001818519
  C        -2.6132497915       17.2124773754       40.7132803627
  H        -2.5308306962       18.1106846778       41.2859340895
  H        -2.8631046447       16.4443434685       41.4008719314
  H        -1.6234141193       16.9257089335       40.3587646931
