352
 i =    99600, time =    99600.000, E =        25.4777167794
  H         9.9413994220        4.9258115171       32.2219830550
  C        10.5124701046        5.8011276846       32.5377659011
  H         9.7703732855        6.4000704999       33.1516866145
  C        11.0197114633        6.5707714788       31.3447537373
  C        11.5803088146        5.4088466355       33.5821280698
  C        11.6489150251        5.7314338503       30.1907472004
  H        10.1439809675        7.1252387388       30.9975378255
  H        11.7335871376        7.4282352850       31.4486651421
  H        11.3913250419        4.4572517305       34.0418316700
  H        12.5648732116        5.1595083608       33.1053265772
  H        11.8675093839        6.2548372435       34.2808999986
  C        10.7596654712        5.0494526627       29.0974087134
  H        12.2100952115        4.9094797683       30.5865587114
  H        12.3594969560        6.3185704485       29.6818391068
  C        10.6437668787        5.9373788378       27.7857177899
  H        11.1018550302        4.0164640796       28.9303131449
  H         9.7147762343        4.8108796516       29.5910623967
  C         9.6920589700        5.2043371714       26.7853051222
  H        11.6314835037        6.1175114858       27.3291818145
  H        10.2310043868        6.8835536034       28.0983561339
  C         8.4534308950        6.0389716143       26.2618146413
  H        10.2170017108        4.8479618419       25.8814563797
  H         9.2316713092        4.3169670799       27.2353752675
  C         7.3072554646        5.2371802021       25.5634878893
  H         8.1725280354        6.6219721058       27.1737749605
  H         8.7750329858        6.9075861381       25.6547232132
  C         6.8897977695        3.8583390615       26.1786201929
  C         7.7755188316        4.4953690923       24.3121799258
  C         6.1189910685        6.0960524738       25.1702610497
  C         7.1167889999        2.7696985845       25.3962311554
  C         6.5015310613        3.5058007481       27.5031661847
  C         7.7058341435        3.1312432687       24.2173987797
  C         8.4052288589        5.1343983393       23.2606099668
  H         5.5202595738        5.4116206506       24.4887623017
  H         6.4047845879        6.9207975884       24.5496818004
  C         5.1226981579        6.5464392589       26.2049766531
  S         6.7242064325        1.2707079904       26.1655238113
  C         6.3824842199        2.1822757334       27.6822616222
  H         6.5191580504        4.2781872082       28.2509134807
  C         8.0926420325        2.4592461471       23.0660217871
  H         8.6195065050        6.1778537669       23.2247894804
  C         8.8172938118        4.4568739819       22.1324879746
  H         5.2494796402        5.9389744341       27.1039964011
  H         5.3380950341        7.5161329055       26.6013626327
  C         3.6975430307        6.4901789193       25.8244681751
  C         6.0680738079        1.4749873507       28.9478747595
  C         8.6085163424        3.1270228600       21.9767875562
  H         7.9719256603        1.4054550928       23.1384857516
  C         9.1901954040        4.8550118221       20.8878920743
  H         3.6293187197        5.4802580376       25.4148522890
  H         3.2789184614        7.1051616899       25.0465449955
  C         2.7363201693        6.5808904224       27.0468727208
  C         6.1381160654        0.0879674039       29.1756411855
  C         5.6109179682        2.2840280455       30.1460006894
  C         9.0389385431        2.4247280593       20.6944316154
  C         9.5138013525        3.7603087705       20.1045307836
  S         9.6477987791        6.3528358526       20.1379277821
  H         1.8369134716        7.1600761005       26.8209996792
  H         3.1983558164        7.2069500366       27.8673247466
  C         2.3450663641        5.1321058111       27.3895130332
  N         6.5932057031       -0.8806462601       28.2423420393
  C         5.7801693617       -0.4540532812       30.4346942693
  C         5.3613403761        1.7067717084       31.3916721716
  H         5.4647191758        3.3695917517       30.0600370547
  C         7.9361652760        1.6408009613       19.9565134116
  C        10.3513990679        1.6461979961       20.9619364301
  C        10.0115554157        4.2078917840       18.8367141220
  C         9.9475197728        5.5743623176       18.7337519389
  H         1.9360489083        4.5124091051       26.5416290163
  H         3.2638220696        4.6104080211       27.6398040331
  C         1.4554553644        5.0328562570       28.6875524870
  S         6.5914905353       -2.2957153992       29.0249881922
  N         5.9774663966       -1.8396269727       30.4223298293
  C         5.3847885625        0.2696066774       31.6185995942
  H         5.0308458808        2.4196127639       32.1530151363
  H         7.6581502046        0.9139973334       20.7289484562
  H         8.4766304174        1.1254847738       19.1327251119
  C         6.7870822606        2.6252500215       19.5538719770
  H        10.5761641492        1.0888619302       19.9940052451
  H        10.2691928711        0.9250456481       21.7248145252
  C        11.5927566836        2.5072177970       21.2162937480
  H        10.2000287063        3.4018409348       18.1584400969
  C        10.2051006580        6.3600866672       17.5137838736
  H         1.2873155698        3.9979464221       28.9702153750
  H         0.5511488496        5.3771229035       28.3119437507
  C         1.7798804563        5.8747319405       29.9185442621
  C         5.0280564890       -0.4677221150       32.7930467889
  H         7.1427345057        3.3405102607       18.7498943241
  H         6.4957696187        3.3162945597       20.3301410706
  C         5.5961139350        1.8619408721       19.0025531480
  H        11.2735441550        3.2842749464       21.9347984607
  H        11.8978194597        2.8554305859       20.1989881845
  C        12.6955624623        1.6012935435       21.8610518480
  C        10.2652770570        7.7779917434       17.4386502906
  C        10.3853282138        5.5688231244       16.2888577632
  H         1.8701203821        6.9409444539       29.6820238559
  H         0.9904863604        5.8715868460       30.6933660385
  C         2.9898732915        5.5018076720       30.6802748530
  H         5.2394552894       -1.5719377171       32.7724345558
  C         4.8404055862        0.0041573242       34.0795140661
  H         5.2090779335        1.1838717294       19.6735960180
  H         5.9321740068        1.2612499616       18.2141548334
  C         4.4213112945        2.8523171421       18.5620050531
  H        12.4473291378        0.8679699418       22.6583611880
  H        13.0337694057        0.8789886740       21.1900602904
  C        13.8246035545        2.6000877428       22.2727951154
  N        10.1861066595        8.7162104784       18.5043123943
  C        10.4757681084        8.4078915386       16.2530756803
  C        10.6375174588        6.2680179603       15.0863733095
  H        10.3021037648        4.4853222264       16.2678920337
  H         2.8360491606        4.5261240494       31.1813749743
  H         3.8530793396        5.4735835001       29.9347021340
  H         3.1852082512        6.2274959209       31.4675011885
  S         4.5050426403        1.6743543287       34.5561913172
  C         4.8488778803       -0.9587790368       35.2517361005
  H         4.1067933334        3.4066380665       19.4385995016
  H         4.9248445928        3.5112905151       17.8084081706
  C         3.4442783895        2.0924347405       17.6532605342
  H        13.3375993596        3.1568247758       23.1014519641
  H        14.0192101648        3.2809050495       21.5143942231
  C        15.0149929236        1.8989138057       22.7237993952
  S        10.1873969600       10.1919577831       17.8756708294
  N        10.5596542847        9.8065457357       16.3174903339
  C        10.6557017766        7.7694118101       15.0220081753
  H        10.6762483835        5.7350577491       14.1481249606
  C         4.2679961935        1.0199712329       36.1985999542
  N         4.3917592956       -0.2907787754       36.3382861452
  O         4.8940970287       -2.1492007970       35.0913702696
  H         3.9079754428        2.0119160779       16.6691448830
  H         2.6080003530        2.7624668507       17.4611526940
  C         2.8951600641        0.7197479930       18.1953940520
  H        14.8328791411        0.9955458079       23.3141227604
  H        15.6017525186        1.5875382857       21.8995807966
  C        15.7623374439        2.8171492651       23.6628235694
  C        10.9524653196        8.5162039996       13.8544759290
  S         3.7489288129        1.9215878610       37.6339869953
  C         4.2763489564       -1.0216852767       37.6400428963
  H         3.7476985898        0.0606513837       18.1461337687
  H         2.6640629028        0.9527648340       19.2138023983
  C         1.7250361755        0.2519613192       17.3588484205
  H        15.0403277091        3.0598554330       24.4237246235
  H        16.0707480840        3.7659955772       23.2301090571
  C        17.0376887710        2.1148566738       24.1600480562
  H        10.7338978361        9.6402624988       14.0412603404
  C        11.4865326021        8.1532308711       12.6582434874
  H         3.4262493807       -0.7520337606       38.2566453037
  H         3.9722929105       -1.9715881726       37.3930708339
  C         5.6034697363       -1.1704933506       38.3890499796
  H         0.9686706702        0.9770055631       17.3478151016
  H         1.2617632538       -0.6380781097       17.8307055788
  C         2.0126846705       -0.1962939511       15.9058649700
  H        17.4444397719        2.4774024735       25.1452251906
  H        16.8315076871        1.0626943873       24.4362393409
  C        18.0725812136        2.0963593648       23.0955495577
  S        11.9589263613        6.5588814280       12.1086366659
  C        11.7168006416        9.2530777599       11.6662604061
  H         5.4461099293       -1.9848625947       39.0721817075
  H         6.3839102234       -1.4198478181       37.6406170000
  H         5.8347599818       -0.2610675356       38.8893135623
  H         1.1506278170        0.0587661451       15.2843750973
  H         2.1988998989       -1.3090468642       15.9062935596
  H         2.8567816070        0.2889356832       15.3553818132
  H        18.9555628773        1.5623039616       23.4296140924
  H        18.4160048555        3.0905161974       22.7650664544
  H        17.6636609909        1.5462240095       22.2695578173
  C        12.1556997722        7.3989013486       10.5207924812
  N        12.1940318638        8.7391131487       10.4986144311
  O        11.4357497547       10.4433141440       11.8117195059
  S        12.7464430442        6.6367875043        9.0033798180
  C        12.4249304936        9.5741551435        9.3123591337
  H        12.6393644839       10.5650043920        9.7074609950
  H        13.1679239485        9.1060920996        8.6323483547
  C        11.1486698428        9.7369254001        8.4721314825
  H        10.3153433930       10.3062733795        8.8690684678
  H        11.3853812790       10.2312199313        7.5829997900
  H        10.8331509331        8.7485007068        8.1676423053
  H        -3.5729486409       13.8096790447       16.4896773552
  C        -2.6243837501       13.4619335678       16.2153196498
  H        -2.7061737848       12.3771388578       16.1263928974
  C        -1.8349176245       13.9973383345       17.4737978875
  C        -2.2085469481       14.1213268895       14.8837507092
  C        -2.5597109945       13.5879654533       18.8175900129
  H        -0.8259996565       13.4943127320       17.5534733786
  H        -1.5786609639       15.0968835277       17.5339076623
  H        -2.7781649928       14.9434189064       14.6459354508
  H        -1.1421684985       14.3456543635       14.9216617567
  H        -2.5943070934       13.4825636095       14.0847367216
  C        -1.5787149649       13.4182780862       19.9881971045
  H        -3.0541382211       12.6864750724       18.6295826035
  H        -3.3381528182       14.3427651049       19.0160408241
  C        -2.2771321878       13.2705059801       21.3440773049
  H        -0.9228204375       12.5423162407       19.8030717432
  H        -1.0165394349       14.3981503626       19.9449879406
  C        -1.2803139879       12.7406457607       22.3802612049
  H        -3.1205017564       12.5830374211       21.1166765648
  H        -2.6142150466       14.3353532983       21.5389463301
  C        -0.0928373106       13.7412984220       22.6111611756
  H        -1.9059381539       12.4990838599       23.2216385065
  H        -1.0089553909       11.8442272949       21.8922454494
  C         1.1829666925       13.1210397009       23.2128207009
  H         0.2785825181       14.2409570391       21.7131047082
  H        -0.5149525719       14.4287229613       23.3148897551
  C         1.5286559530       11.7754615336       22.5535838610
  C         0.7952995318       12.4284914844       24.5267259963
  C         2.2652575328       14.1868410869       23.2417298732
  C         1.4143298523       10.6849531358       23.3718206777
  C         2.0632622497       11.4470368845       21.3105949173
  C         0.9520523133       11.0706591699       24.6385907769
  C         0.3873784992       13.1350898254       25.6262490625
  H         2.3419399344       14.6473718373       22.2361405665
  H         1.8653904689       14.9432860251       23.9252244043
  C         3.5333789506       13.6413302038       23.9724953616
  S         1.7520641992        9.2067135115       22.5852588593
  C         2.1008627908       10.1050969681       21.1652142269
  H         2.4910480717       12.2316733649       20.6945119935
  C         0.6668877810       10.4321526474       25.8028764272
  H         0.2785790536       14.2813990379       25.5036395270
  C         0.0414122277       12.4802370288       26.8095283802
  H         3.9440183432       12.8062108718       23.5874046486
  H         3.2422878351       13.3936760428       24.9885977537
  C         4.5539466267       14.6841987211       24.1547454145
  C         2.7461011809        9.4956503876       19.9097633123
  C         0.2639546205       11.1481407117       26.9166346223
  H         0.7631884866        9.3784414240       25.9299110638
  C        -0.3536615631       12.8601503986       28.0682233767
  H         5.1686759699       14.5298778802       25.0201614815
  H         3.9478979054       15.5480677928       24.4322131098
  C         5.3445292413       15.1231861474       22.9574829128
  C         2.8335847570        8.1278950516       19.6247618720
  C         3.0405242766       10.3938910550       18.7847857467
  C        -0.1735616255       10.4365902028       28.1734135254
  C        -0.4337144376       11.7526231588       28.8906109905
  S        -0.6412454117       14.2659377903       28.9149380256
  H         5.8880181477       16.0821034281       23.1046323514
  H         4.6288604483       15.3459763106       22.0996244089
  C         6.3672260799       14.0672434347       22.5632213229
  N         2.6094157067        7.1474321582       20.5856931703
  C         3.0749099935        7.6031027227       18.3809621414
  C         3.4253321287        9.8878647306       17.5837535324
  H         2.8806454343       11.4373616078       18.9284444591
  C         0.9431901986        9.6543099293       28.9340166032
  C        -1.4906090605        9.6059250667       28.0630793292
  C        -0.7600460140       12.0557440850       30.2277411802
  C        -0.9745796621       13.4369771683       30.3895621552
  H         7.2153813843       14.6780671711       22.2581837530
  H         6.6559500675       13.4978650963       23.4601024472
  C         5.9214501378       13.2224597528       21.3420373265
  S         2.5553105554        5.7306158242       19.7606612454
  N         2.9252693039        6.2060546512       18.2943036607
  C         3.4946310033        8.4190753575       17.3134850266
  H         3.6360914240       10.6047528318       16.8128994645
  H         1.2152328749        8.8442094378       28.2829849139
  H         0.7077657944        9.0394501907       29.8063141517
  C         2.1853142681       10.4876260682       29.2406841473
  H        -1.2387477134        8.9043989490       27.2906243673
  H        -1.6168877348        8.9562853471       28.9033424303
  C        -2.7467171366       10.3296260386       27.6591952348
  H        -0.8359381447       11.2533592072       30.9230512341
  C        -1.4383069240       14.1714787473       31.5776580652
  H         4.9101071114       12.6651778904       21.4862921679
  H         6.6856806523       12.4377985079       21.3396568032
  C         6.0998180484       13.8543428512       19.9447009603
  C         3.7129044742        7.8483019762       16.0723803910
  H         2.7088701716       10.7361267999       28.3000807628
  H         1.9705566547       11.4137543720       29.7042555182
  C         3.1552077928        9.9063772819       30.2535482473
  H        -2.5728146532       10.7661372093       26.6700902002
  H        -2.9676528495       11.1538207458       28.2252599371
  C        -3.9531063283        9.3868096718       27.4639551387
  C        -1.4303269055       15.6125188258       31.7940383548
  C        -1.7172732248       13.4774784122       32.8117739124
  H         6.0521860191       14.9964216834       19.9410804354
  H         7.0505048941       13.5718361036       19.5247596261
  C         5.0753586170       13.3297287683       18.8657059757
  H         3.6971946974        6.7932476829       16.0264585073
  C         4.0676695875        8.3604239108       14.8587208536
  H         3.2156426750        8.7985831140       30.2640580215
  H         2.7946216598       10.2079195023       31.2773178097
  C         4.5748973836       10.4532853359       30.0497480964
  H        -3.6641296914        8.5815502795       26.7762130973
  H        -4.2107089144        8.9260292676       28.4299720427
  C        -5.0996000890       10.0121619105       26.6746562680
  N        -1.1376562762       16.5360526097       30.7796542541
  C        -1.7905565594       16.2130062101       32.9474436059
  C        -2.1020622253       14.0240584805       34.0088407100
  H        -1.6940554847       12.4022374945       32.7464800333
  H         5.1594529662       12.3367129728       18.5869055228
  H         4.0888810253       13.4169013161       19.3823297708
  H         4.9549925730       14.0126172526       18.0157803252
  S         4.3815204958       10.0440299236       14.4780542944
  C         4.3032599235        7.3896090057       13.7066365279
  H         4.8259354396       10.4899222387       29.0435864026
  H         4.7309367474       11.4615318960       30.4581399005
  C         5.5113500656        9.5116074336       30.7136181682
  H        -4.8487883495        9.9442000299       25.6319689875
  H        -5.0876612781       11.0432649961       26.9516655296
  C        -6.4059375293        9.4054100807       26.7788879726
  S        -0.9840737464       18.0159794144       31.4530760911
  N        -1.6337208606       17.6161756857       32.8701412716
  C        -2.1697863816       15.4996450519       34.1323958090
  H        -2.2877509743       13.3625646036       34.7925324740
  C         4.6737052976        9.4560941622       12.8518063161
  N         4.6380202984        8.1248906301       12.6448948998
  O         4.4324295781        6.1638784472       13.7816539379
  H         5.2437821286        9.2064813119       31.6872001714
  H         6.4612122762        9.9582127787       30.8336475095
  C         5.6965981370        8.2362712363       29.7768486171
  H        -6.5484522858        8.6306413776       26.0333076645
  H        -6.5435162226        8.8097327842       27.7100367759
  C        -7.5107049080       10.3716238080       26.7270093486
  C        -2.4041046791       16.2033652051       35.3631194078
  S         4.9138751378       10.4368872427       11.4422903816
  C         4.7712776400        7.5160418275       11.3193199947
  H         4.8929217139        7.6246960647       29.9629676954
  H         5.6982515284        8.5839863341       28.6782797383
  C         6.9327804365        7.3455928062       30.0251407828
  H        -7.2370611197       11.2027002978       26.0214958195
  H        -7.8358051826       10.7830991539       27.7363019212
  C        -8.7873171543        9.6987182570       26.1146097722
  H        -2.2669889301       17.2313965524       35.2937709074
  C        -2.7678666563       15.8341704486       36.6472028159
  H         5.4294945951        8.0732987115       10.6593860569
  H         5.3222391060        6.5643220331       11.4319369609
  C         3.3963680613        7.1850551296       10.6984806562
  H         7.7525930413        7.9972118284       30.1386229770
  H         7.0007334268        6.7194217470       29.2152647291
  C         6.5726604029        6.5187316377       31.2725417214
  H        -8.8034200372        8.7036898931       26.5414277026
  H        -9.6763453353       10.1333462079       26.5219874442
  C        -8.8739025796        9.7315556489       24.6274203191
  S        -3.2107083246       14.2061479686       37.0374443703
  C        -2.8895525392       16.8953461273       37.6744681287
  H         3.2174867382        6.1357528121       10.9383753711
  H         2.6774749163        7.8493076438       11.2352264125
  H         3.5155315282        7.2596418630        9.6366491689
  H         6.2829971706        7.2375388970       32.0305133914
  H         7.3674149187        5.8976567616       31.6383916613
  H         5.7093540165        5.9516528478       31.0124146447
  H        -8.0823384043        9.0801003824       24.3090229413
  H        -8.5604491279       10.6995442580       24.3252789225
  H        -9.7821605312        9.4442992697       24.1924922310
  C        -3.7419614769       14.9865227048       38.6030406296
  N        -3.5732321106       16.3309316795       38.6980587942
  O        -2.6754906035       18.0999416408       37.5276713341
  S        -4.6578040272       14.1884065586       39.8091535546
  C        -3.9332160417       17.0823679261       39.9002025875
  H        -3.9559000204       18.1144381625       39.5790096812
  H        -4.9828687519       16.7862415214       40.0716822981
  C        -2.9305456925       16.8200549650       40.9600693827
  H        -2.0807472116       16.2835720541       40.5636339280
  H        -2.5861585775       17.7606412577       41.3395918209
  H        -3.3318015513       16.2761195641       41.8181355573
