352
 i =    33400, time =    33400.000, E =        24.9181048613
  H        11.7728240662        7.2202469639       32.4782745443
  C        11.5517427639        6.1759096038       32.2190270395
  H        12.4642687454        5.6520839104       31.8916535865
  C        10.4523506069        6.0751325763       31.0653538549
  C        10.9675133475        5.6926505568       33.5462258781
  C        11.1899805427        5.9759238277       29.7551427298
  H         9.9576453711        5.1344386121       31.1814770750
  H         9.6458848275        6.8859157995       30.9944717256
  H        10.8302959843        4.6252423405       33.4296109297
  H        11.6967024457        5.9651816066       34.3567129603
  H        10.0412582135        6.2178616079       33.7132568939
  C        10.1856927789        6.2390246175       28.5579904696
  H        11.5992517454        4.9404566320       29.6994472891
  H        12.0366101084        6.6933534701       29.8192663563
  C        10.9159874670        5.8187075270       27.3012345022
  H         9.1947670756        5.7193994330       28.7429125279
  H         9.9295703205        7.2686988512       28.6178695028
  C        10.0426040130        5.2809022590       26.1900479950
  H        11.5766503940        4.9661816329       27.4230679317
  H        11.5589977755        6.6165451833       26.9908342455
  C         8.7629608600        6.1299650401       25.9220992513
  H        10.5802872080        4.8099426719       25.3049376914
  H         9.7168551553        4.3706044915       26.6699750387
  C         7.6561748175        5.3289283756       25.1703893254
  H         8.3937209385        6.6804799854       26.7490224201
  H         9.0403955013        6.8470067351       25.1589241052
  C         7.3008105072        4.0275187985       25.8453970037
  C         8.0363793447        4.5884001874       23.8664474054
  C         6.3833404314        6.1464142089       24.8368016336
  C         7.4515734072        2.8890613799       25.0399545106
  C         6.8983234120        3.6797036398       27.1892279939
  C         7.9411000449        3.2263601803       23.7986959704
  C         8.4328102590        5.2657533164       22.7333606105
  H         6.5938670728        6.8177494048       23.9469051119
  H         6.2580910349        6.8913887922       25.5943843709
  C         5.2212203345        5.3105293738       24.4053948282
  S         6.8530391996        1.4707864673       25.7985717308
  C         6.5875832863        2.3298734092       27.2205919732
  H         6.8419551029        4.4889909830       27.9065590225
  C         8.2512422100        2.6767525958       22.5979028116
  H         8.5560546937        6.2945152289       22.7001083315
  C         8.6434254686        4.7229661711       21.5207555991
  H         5.5434138722        4.7584358811       23.5449718950
  H         4.9647746820        4.5176511494       25.0648411447
  C         3.9244072035        6.1158800816       24.2517528792
  C         5.9658574908        1.6478711885       28.3985385889
  C         8.5507915969        3.3748884993       21.3977770335
  H         7.9744449394        1.6458396784       22.4679879586
  C         9.0099470182        5.1238993757       20.2480648168
  H         3.2380185568        5.4459976340       23.7107099467
  H         3.8972371264        6.9907491971       23.6299324867
  C         3.2324254664        6.2577078352       25.5806026094
  C         5.9755224144        0.2454225211       28.6535728405
  C         5.6422076833        2.4849814709       29.5684159196
  C         8.7486540035        2.7302663577       19.9736197993
  C         9.0269681102        4.0540153866       19.3624374294
  S         9.3609180640        6.6569138158       19.6202448276
  H         2.4553150003        7.0447305736       25.4105228955
  H         3.9874396365        6.6767124155       26.2994649301
  C         2.7224240972        5.0279905101       26.2699536481
  N         6.3072856003       -0.7141181570       27.6952605374
  C         5.6975815541       -0.3112732052       29.9046610719
  C         5.2644479937        1.9307352287       30.8048883801
  H         5.7457382025        3.5499210406       29.4865903559
  C         7.4883873062        1.9242316687       19.5598315593
  C        10.0378237822        1.8669011991       19.9639275935
  C         9.2757978032        4.5699870938       18.0954633260
  C         9.5282573249        5.8946630051       18.0667028760
  H         2.3453646274        4.2334700864       25.5892281999
  H         3.3837111364        4.5269939883       26.8760458788
  C         1.6192205276        5.3936967345       27.2512798201
  S         6.2252826689       -2.2273300270       28.3722090864
  N         5.7637777221       -1.7461778776       29.8696876027
  C         5.3267895218        0.4519496955       31.0822854963
  H         4.9193108896        2.5566829258       31.6055937838
  H         7.1272276614        1.1885560064       20.2958240595
  H         7.7827366130        1.4320831280       18.5958520082
  C         6.2292265415        2.6998015959       19.2175323175
  H        10.0827164744        1.5022367791       18.9100006214
  H        10.0742993859        0.9431811629       20.5832214594
  C        11.3234529065        2.6292571814       20.2743291278
  H         9.2272509087        3.8502158577       17.2631102269
  C        10.0286111255        6.6760778649       16.8992050153
  H         1.1159747640        4.4173721800       27.6659173079
  H         0.8982778053        6.0447834451       26.7144422213
  C         2.1479930912        6.2704210288       28.4081435645
  C         5.0424839924       -0.2474986497       32.2902120926
  H         6.2501342790        3.1879789696       18.2925247920
  H         6.0506697555        3.4722872853       19.9475245128
  C         5.0046990710        1.7649948390       19.1119618050
  H        11.1146247809        3.1374831204       21.1638466926
  H        11.5232343932        3.3637042627       19.5120505386
  C        12.5159760996        1.7864143496       20.5437161053
  C        10.2192327306        8.0600887827       16.8228360258
  C        10.3503089137        5.9641463512       15.7075307788
  H         2.6342915388        7.1623128935       27.9801491512
  H         1.1914816001        6.7217083585       28.7608534845
  C         3.1123853294        5.6275512242       29.5018531011
  H         5.2418062355       -1.3123883406       32.1900478415
  C         4.7538018523        0.1939093041       33.5307191788
  H         4.5719719751        1.5241462225       20.1077931268
  H         5.3535936452        0.8164484216       18.7630143587
  C         4.0022350458        2.1989452018       18.0479480810
  H        12.5026410177        1.2799793656       21.5476768407
  H        12.5557953302        0.9864877230       19.8105839364
  C        13.8300763080        2.5787094806       20.4405035645
  N        10.1080830463        9.0055512808       17.9060851636
  C        10.7218304283        8.7011910601       15.6913443091
  C        10.8919960121        6.5820552828       14.6006591147
  H        10.3945159163        4.8983690295       15.6942901500
  H         2.4581794520        5.1302763724       30.1816811200
  H         3.8441823999        4.9343037396       29.0669968078
  H         3.6388934297        6.4448822256       30.0328633259
  S         4.3732632688        1.8051600258       33.9282584666
  C         4.7620721394       -0.7503237610       34.7047433002
  H         3.6164917939        3.2668288593       18.2651612999
  H         4.4779434488        2.3303369481       17.0865893437
  C         2.9098864339        1.1063042783       17.9635203750
  H        13.5751217910        3.4874759218       19.8005531942
  H        14.5734506373        1.9947119549       19.9118059040
  C        14.3654234510        2.9469838042       21.8359708461
  S        10.3278194398       10.5283854323       17.3549661247
  N        10.7073256808       10.1531001178       15.8325957389
  C        11.0846592887        8.0709338986       14.5195478804
  H        11.0543296849        5.9609298491       13.7394921637
  C         4.1923242625        1.1886675813       35.5414213795
  N         4.2533019457       -0.1295407874       35.7620998909
  O         5.1316008919       -1.8699374427       34.6760411048
  H         2.0229010653        1.4687542178       17.4941113612
  H         2.5741992761        0.7434112503       18.9263110698
  C         3.3146003842       -0.1668469583       17.1456333240
  H        15.1765215142        3.7531309440       21.7026221201
  H        13.5655126705        3.3466951548       22.4327935079
  C        15.0094557324        1.8046340799       22.5810072378
  C        11.5795549335        8.7641532699       13.3860470622
  S         3.8786755008        2.2494116160       36.8357382245
  C         4.2314205084       -0.8618965667       37.0327085926
  H         3.2489540200        0.0448385083       16.0652154629
  H         4.4242363198       -0.3820208181       17.3008897153
  C         2.5288672411       -1.4292984587       17.3704177259
  H        15.3007182734        1.0202415143       21.8659209480
  H        14.1395658002        1.4740225862       23.2353095461
  C        16.1895972308        2.2118493252       23.5050737814
  H        11.5203232234        9.8349068969       13.5658807417
  C        12.1260986086        8.3127294930       12.2220229914
  H         3.4949825024       -0.3319415591       37.6537192041
  H         3.8646500296       -1.8754322268       36.8315917063
  C         5.5968852471       -0.9202329971       37.6691879338
  H         1.4927205479       -1.1630375117       17.4801553311
  H         3.0075058988       -1.8702480749       18.2776313675
  C         2.7434710059       -2.4433369212       16.3186071621
  H        16.1335367818        3.2053716216       23.9589867162
  H        16.2716249460        1.4170669385       24.2708808247
  C        17.5205846222        2.1129017151       22.7179816161
  S        12.4417608887        6.7259986238       11.6708778135
  C        12.2193532011        9.3477572532       11.2265062989
  H         5.6755885869       -1.7012702459       38.3945038327
  H         6.4282824720       -1.1291750912       37.0163971553
  H         5.8844733768        0.0500657312       38.0383109262
  H         2.4325755582       -3.4466127172       16.5236275199
  H         3.7788069275       -2.5026560186       16.0586243228
  H         2.1547085892       -2.0454619283       15.4960793912
  H        17.4858362967        1.2574058607       22.1137573754
  H        18.4139574849        1.9783511175       23.3900490215
  H        17.7441046621        2.9727123279       22.0633180301
  C        12.6510596329        7.4983328797       10.0760573222
  N        12.5360170866        8.8311908596       10.0385945771
  O        11.9096767014       10.5087269016       11.4093391258
  S        13.1419163300        6.5820266341        8.6442266496
  C        12.4353466302        9.6968080634        8.8789993200
  H        12.5725660271       10.7287500792        8.9716248510
  H        13.2024061669        9.3278989624        8.1214946744
  C        11.0548031587        9.5244447544        8.2751455324
  H        10.9165424487        8.5380035277        7.9104889959
  H        10.3640876830        9.7639915439        9.0102869800
  H        10.9174176128       10.1972977863        7.4539706739
  H        -2.3300600862       15.8622616689       16.6824811848
  C        -2.4924959730       14.8138787154       16.6325386310
  H        -3.3816314394       14.5689216332       17.1743288617
  C        -1.4123125414       14.0707518901       17.3054664489
  C        -2.6195077367       14.4831107327       15.1311386851
  C        -1.3943784217       14.4024585635       18.8066547007
  H        -1.4641868826       13.0012182276       17.0785580814
  H        -0.4221857686       14.1888862754       16.8559988659
  H        -2.8327231214       13.4395481799       14.8636617170
  H        -3.5998223157       14.9559904435       14.8462612861
  H        -1.9164973336       14.9373650859       14.4270440316
  C        -2.4052822626       13.5930659192       19.6255032847
  H        -1.5883046023       15.5273789216       18.9339766996
  H        -0.3709671958       14.3181061402       19.2006975774
  C        -2.2824219717       13.9966199876       21.1222385343
  H        -3.4756164263       13.7589791644       19.3470212271
  H        -2.1707222362       12.4538960611       19.5398146876
  C        -1.2337885797       13.2303129666       21.9100171763
  H        -3.3442002197       14.0054936814       21.4775435661
  H        -2.0981958901       15.0697170564       21.1054672656
  C        -0.0839679742       14.0381683580       22.4144358298
  H        -1.7322848492       12.8926214317       22.8250855450
  H        -0.8410633894       12.3911605803       21.3418787171
  C         1.0585163155       13.2472330133       23.1865840751
  H         0.3362277818       14.6545537492       21.6113758925
  H        -0.4238242848       14.6970091085       23.1578189126
  C         1.3717860051       11.8748080101       22.5447262537
  C         0.5462028427       12.4927088153       24.4545326885
  C         2.3444240854       14.0949155550       23.2958185273
  C         1.0186798653       10.7790126821       23.2679730998
  C         1.9244942264       11.4961048167       21.2990484012
  C         0.5433384496       11.1298712320       24.5448264901
  C        -0.0372817424       13.1077560302       25.4990242166
  H         2.6435807094       14.4777983968       22.3008505807
  H         2.2543617564       14.8013376947       24.1214511054
  C         3.5271294632       13.2444399094       23.6918518362
  S         1.4323439834        9.2826170972       22.5012388246
  C         2.0920164842       10.1546747021       21.1059195563
  H         2.2629433715       12.3193137917       20.6973056915
  C         0.1086290224       10.5013798567       25.6644212597
  H        -0.0213740119       14.1378729490       25.3571752552
  C        -0.4144564298       12.5315789949       26.6357948317
  H         3.8158143768       12.6752947489       22.8109531671
  H         3.1671083602       12.5209607692       24.4327705023
  C         4.7702455061       14.0553682573       24.0895678200
  C         2.6272602154        9.5156279492       19.9293305523
  C        -0.3692315951       11.2092092202       26.7784945608
  H         0.0909198553        9.3983623085       25.6839513336
  C        -0.7949053359       12.9003103716       27.9212198934
  H         5.4505200732       13.5131175617       24.7118848716
  H         4.4859244641       15.0101700918       24.5839104745
  C         5.6697987668       14.4414888017       22.8939819462
  C         2.6277485576        8.1426479205       19.5985494224
  C         3.0499717489       10.3639075826       18.8176182347
  C        -0.7115053010       10.4694963388       28.0703904419
  C        -0.8668859257       11.8448521797       28.8027630610
  S        -0.8272737222       14.4706458236       28.6419725566
  H         6.3695365530       15.2209806076       23.1395197484
  H         4.9588539319       14.8754083604       22.2030161559
  C         6.3002548686       13.1963601092       22.2597851555
  N         2.2736211867        7.1871134889       20.5276795326
  C         3.0177496697        7.7088744118       18.3803339232
  C         3.4761611683        9.9423566691       17.5773716139
  H         2.9184497478       11.4326699948       18.9259158886
  C         0.4238146683        9.6872055689       28.8218643646
  C        -2.1016195659        9.6412262762       27.8464843667
  C        -1.2321351254       12.3855345076       30.0441034275
  C        -1.2703544056       13.7444243024       30.1580103921
  H         6.8941901517       12.7102605205       22.9785636530
  H         5.6540673654       12.4165336794       21.8811527124
  C         7.1659827153       13.6054666415       21.0098539367
  S         2.2477848856        5.7609266552       19.7196882451
  N         2.8160733088        6.3150434968       18.2866853387
  C         3.3877782233        8.4811925236       17.3143881720
  H         3.6792084487       10.6451422619       16.8084285481
  H         0.9252162392        8.9752074636       28.1654982318
  H         0.0026706408        9.0704438219       29.6229436741
  C         1.5927063869       10.5725090593       29.3974896850
  H        -1.8631057075        8.9505721387       27.0703760453
  H        -2.3736322478        8.9975465836       28.6346358372
  C        -3.2791253336       10.5374581822       27.3699943038
  H        -1.3577404539       11.7412221662       30.8876846693
  C        -1.5548269713       14.5683558191       31.3562120486
  H         7.7055551347       12.7517991379       20.6501242336
  H         7.8057748060       14.4404943824       21.2667133783
  C         6.3446528788       13.9920225993       19.7177094204
  C         3.6104232413        7.9347507886       16.0276871008
  H         2.0575374480       11.1012864366       28.5204704997
  H         1.2251781767       11.3283955837       30.1148681696
  C         2.6617157290        9.7540439152       30.0517196106
  H        -3.1373344362       10.6152393414       26.2776488096
  H        -3.1524090913       11.4986759801       27.8917785307
  C        -4.6211152617        9.9317547875       27.7703389861
  C        -1.5182182074       15.9845415923       31.4705430105
  C        -1.6977910837       13.8790157501       32.6644362710
  H         5.8192364173       14.9294332550       20.0342422901
  H         7.0449448152       14.0700658885       18.8535456399
  C         5.2573389409       12.9797178154       19.3302799760
  H         3.4067354030        6.8648551566       16.0756726239
  C         4.0075443542        8.3755386460       14.8051806710
  H         3.1974833560        9.1678855150       29.3285256585
  H         2.2879637136        8.9110307297       30.6353637559
  C         3.7015785874       10.6446480893       30.6926469290
  H        -4.7536361692        8.8141938772       27.4588201489
  H        -4.6655382177        9.8665291106       28.8455481709
  C        -5.6747831949       10.8477947537       27.1147707604
  N        -1.3609317367       16.8801890565       30.3795137348
  C        -1.8352562051       16.6798558810       32.5953727534
  C        -1.9351097530       14.5286662754       33.8138463418
  H        -1.5185088003       12.8498217472       32.6942167128
  H         5.6107194556       11.9816798498       19.5641788987
  H         4.3410846579       13.0326138429       19.9549004665
  H         5.0980980049       13.1335270728       18.2169008922
  S         4.3196383286       10.0074389367       14.3334819432
  C         3.9893000056        7.3857024548       13.6977155148
  H         3.6191579407       11.6038207165       30.3450023637
  H         3.4523513428       10.6990604779       31.7434876280
  C         5.1165086197       10.2798031808       30.3996852570
  H        -5.5320902919       11.8098320157       27.4647125538
  H        -6.6953435375       10.5754759146       27.3992205216
  C        -5.6646253819       10.6727389422       25.5972574173
  S        -1.4271463875       18.4537377401       30.9775026629
  N        -1.7978977797       18.0906752627       32.4774858511
  C        -2.0574463935       16.0327657080       33.8440842908
  H        -1.9668187699       13.9239911150       34.7266019482
  C         4.5830986291        9.2524655125       12.7655649755
  N         4.4495760335        7.9355281071       12.5913823996
  O         3.7446814458        6.2459772094       13.9276268713
  H         5.8355642815       10.9909474427       30.9041000462
  H         5.3964855683       10.2777355432       29.3438246212
  C         5.3849516655        8.8929384308       30.8884386714
  H        -4.9118431359       11.3852877872       25.1996355230
  H        -5.2876045471        9.6775452655       25.2197101690
  C        -7.0620828607       10.8999339172       25.0171055826
  C        -2.4750907988       16.8346803526       35.0205402071
  S         5.0741660954       10.3195571788       11.4063228702
  C         4.5863846211        7.1521889661       11.4085113511
  H         6.0601770373        9.0121996525       31.6916545342
  H         4.6207611516        8.3682919109       31.3994102125
  C         6.0234831314        8.0154606421       29.8070527326
  H        -6.8570365832       11.1607223176       23.9432077095
  H        -7.5251684498       11.8213742071       25.4092907571
  C        -7.9287510240        9.6916102455       25.1934013721
  H        -2.3791692847       17.9197721508       34.9975767738
  C        -2.8827720785       16.3833497698       36.2666926719
  H         5.3649207980        7.7127788487       10.9079553281
  H         5.0223157711        6.2184127194       11.5857664707
  C         3.3693687996        7.1687454346       10.4523859287
  H         6.8197134608        8.5330860156       29.3440297310
  H         5.3392294286        7.8682326891       29.0112699761
  C         6.5944938344        6.6353421881       30.2272462788
  H        -8.2016809413        9.3301271399       24.1656406487
  H        -7.4249081467        8.9564684293       25.7513857459
  C        -9.1887788154       10.0268145498       26.0620274160
  S        -3.1451201125       14.7058724562       36.8382654781
  C        -2.8756435486       17.3758513645       37.4062179572
  H         2.5682561283        6.4403587599       10.6694454819
  H         2.7967315288        8.1070339370       10.6655753346
  H         3.6563443401        7.1196164770        9.3835288424
  H         7.1905911060        6.1981421603       29.4242802361
  H         5.8696745699        5.9363941938       30.5809435846
  H         7.2778009756        6.8736019665       31.0075644408
  H        -9.5622873274        9.1389292284       26.5289900019
  H       -10.0203839894       10.5912701494       25.5918054720
  H        -8.8402855081       10.6930890156       26.7983500040
  C        -3.5007549280       15.4439036037       38.4084782627
  N        -3.2646991460       16.7565213367       38.5403307044
  O        -2.5259686044       18.5485321754       37.3351277069
  S        -3.7769444936       14.6026721727       39.9347737655
  C        -3.2196897010       17.5024391530       39.8763675864
  H        -3.4778311647       18.6120998507       39.9195439346
  H        -3.9500144882       17.1535177675       40.5810647053
  C        -1.7182779943       17.3151841046       40.4003818609
  H        -1.0005723644       17.1905460494       39.5561556874
  H        -1.3186139974       18.1614560029       40.8638277579
  H        -1.6556023214       16.4801882157       41.0548858697
