352
 i =    36400, time =    36400.000, E =        24.9495406953
  H        12.0452424514        6.9741802935       32.4791362578
  C        11.5885720692        6.0146946828       32.4896498422
  H        12.4026984222        5.2612542991       32.3984905957
  C        10.6909710472        5.8460849270       31.3372227888
  C        10.8020681518        5.8440324360       33.8167276205
  C        11.3186171670        5.5355686890       30.0093248595
  H         9.9606517367        5.0898951099       31.5012360329
  H        10.1247314191        6.7357661007       31.1602435847
  H         9.9631324696        5.2293457257       33.6155986210
  H        11.4449108747        5.3466619597       34.5555329295
  H        10.3909230203        6.7883583938       34.1742174957
  C        10.2563460716        5.4771759605       28.9404646193
  H        11.9104356703        4.6051170926       30.1191757905
  H        12.0523839461        6.2785484370       29.7734067768
  C        10.8651625682        5.4801873975       27.5624827274
  H         9.7078260840        4.6000184562       29.0934076741
  H         9.5160004446        6.3622731573       28.9122914854
  C         9.9002332451        4.8978058327       26.4728923249
  H        11.6408990456        4.7989219039       27.5148055596
  H        11.3025969478        6.4053263439       27.4716379706
  C         8.6624787510        5.7409913279       26.2112345931
  H        10.3587372957        4.8135644912       25.5539052598
  H         9.7439595259        3.9105751332       26.8815626885
  C         7.4970464484        5.0566461308       25.5140816832
  H         8.3760595625        6.1695954981       27.1503027016
  H         8.9018327663        6.6239815351       25.6892090972
  C         7.0760597665        3.6721298278       26.1682097847
  C         7.7687628187        4.3212154519       24.2138187472
  C         6.3694452582        6.0428702403       25.4961959269
  C         7.2816641490        2.5947047935       25.3741787214
  C         6.5102914430        3.3057188864       27.3823128840
  C         7.7006016316        2.9633744461       24.1285882462
  C         8.2140142796        4.9929203062       23.1060115206
  H         6.6857618668        6.9633669728       24.9927478609
  H         6.0994583125        6.3647151076       26.5108974649
  C         5.0691336773        5.5315285901       24.8325236335
  S         6.9945273350        1.1005002505       26.1514515889
  C         6.4034348801        1.9590616618       27.4874056097
  H         6.3575953252        3.9921315425       28.1619737605
  C         7.9863197533        2.3568243292       22.9504806275
  H         8.4048768792        6.0954809924       23.1095100430
  C         8.5263035809        4.3601659375       21.9986715717
  H         5.1527192665        5.5889150990       23.7812601823
  H         5.0078433193        4.4489458328       24.9009033346
  C         3.8279854053        6.3589336121       25.1364124398
  C         5.9727540479        1.2336831437       28.7659245960
  C         8.3663878420        3.0595472959       21.8039390984
  H         7.8720002100        1.3062201832       22.9320475667
  C         9.0015550096        4.7318589587       20.7248857775
  H         3.0869285612        6.0163929493       24.3525839656
  H         4.0405378172        7.3655808485       24.8478646869
  C         3.2524620429        6.2116131483       26.5190837550
  C         5.8907286941       -0.1532484734       29.0261289565
  C         5.5982483338        2.0566591699       29.9201679808
  C         8.7243683878        2.2739865206       20.5706780813
  C         9.0347149937        3.6184188748       19.8871688096
  S         9.4903436256        6.1774778946       20.1020903184
  H         2.4364804852        6.9325066142       26.5948808246
  H         3.9883954057        6.6243176282       27.2354739416
  C         2.6892436151        4.8803962857       26.8106442725
  N         6.1724410775       -1.0902185341       28.0490840958
  C         5.5476203727       -0.7509734888       30.2103379916
  C         5.0958517607        1.5210055491       31.0777979418
  H         5.6676533549        3.1112092359       29.8005589447
  C         7.6031790339        1.5925973720       19.8470464006
  C        10.0160436620        1.4312991931       20.9068495697
  C         9.4904275170        4.0410794614       18.6142262277
  C         9.7277115867        5.3878756329       18.5147301302
  H         2.2247122376        4.3688711361       25.9771003479
  H         3.4446497567        4.2376033664       27.2265771340
  C         1.4574319910        5.0538063543       27.7554570475
  S         6.0570389406       -2.6084729125       28.6440986872
  N         5.6381744138       -2.1916972558       30.1573699086
  C         5.0834315438       -0.0015135549       31.3197901011
  H         4.9077882248        2.2565154256       31.9349356916
  H         7.2305099534        0.7884389228       20.4544398384
  H         8.0242005741        1.1822360493       18.9731244837
  C         6.4211610931        2.5010527506       19.5575997234
  H        10.2808404053        0.8466510129       19.9885546240
  H         9.7381589950        0.6694652895       21.6321539219
  C        11.2677472699        2.1859516587       21.3216678680
  H         9.7372781451        3.3304732475       17.9072387959
  C        10.0012651640        6.1391574622       17.2045026063
  H         0.9155060915        4.1253356262       27.7090766598
  H         0.7837375660        5.8066427681       27.2414353883
  C         1.9196067348        5.5695912821       29.1176307001
  C         4.8116247488       -0.7521062867       32.4927786316
  H         6.7729882967        3.1561375934       18.7207846452
  H         6.0682325083        2.9713866489       20.5043937546
  C         5.2486092067        1.6760310275       19.1030397617
  H        11.2264841628        2.5945839279       22.3415026151
  H        11.3346800690        3.0549137195       20.6904088608
  C        12.6077868614        1.4428141790       21.3921303570
  C        10.0518504177        7.5107545693       16.9967670774
  C        10.2590004835        5.3232369475       16.0391919974
  H         2.1375178572        6.5903580862       29.0935408664
  H         1.0564533040        5.3829193980       29.7080180678
  C         3.0532481031        4.7417687470       29.7767168962
  H         5.0159274143       -1.7930539253       32.3836487084
  C         4.4407486343       -0.3751688451       33.7613179131
  H         4.8629280979        1.1842852539       19.9928416245
  H         5.5648935354        0.9226196027       18.4741069909
  C         4.0905954037        2.3377691040       18.3147909136
  H        12.6146296266        0.8379649631       22.2677530028
  H        12.7237038958        0.9025072219       20.5494778243
  C        13.7698313181        2.4315227975       21.3616795550
  N         9.8728402973        8.3921737966       18.0410148294
  C        10.4430425962        8.0338315456       15.7800256200
  C        10.4495801076        5.8073379835       14.7464175175
  H        10.2516646411        4.2416155556       16.1072871527
  H         3.1226876148        4.8280978550       30.8630207771
  H         3.0247197668        3.6829149623       29.4917946565
  H         3.9762539793        5.1425008445       29.3556777191
  S         4.4423043301        1.2699867515       34.3521961395
  C         4.2827708828       -1.4973036429       34.7421959432
  H         3.9232078424        3.1937576054       18.9277841127
  H         4.4433710025        2.5681398181       17.3256504271
  C         2.7965631293        1.4730562423       18.2585852622
  H        13.5979831159        3.2772057896       20.7100625927
  H        14.5784904283        2.0009915686       20.7443916651
  C        14.2497007948        2.8998194393       22.6828596027
  S        10.0891550659        9.8443286543       17.4168191218
  N        10.4548577671        9.4207495826       15.9041778426
  C        10.6134925456        7.2993525330       14.6245117878
  H        10.4290723505        5.1124942590       13.9119717059
  C         3.9987382801        0.4533302176       35.8935202679
  N         4.0642436376       -0.9066360878       35.9356987927
  O         4.3012188179       -2.6890516277       34.4886961943
  H         1.9983316109        2.0055370737       17.6907133306
  H         2.4512463880        1.5200771581       19.2865522685
  C         3.0164510822        0.0964464516       17.7118188439
  H        14.9634411703        3.7671675580       22.5735862423
  H        13.4261301329        3.3629348856       23.2349423872
  C        14.8540324892        1.8212398256       23.5429720611
  C        10.8395540715        8.0671520534       13.4072783393
  S         3.7493890125        1.2855153227       37.4100781088
  C         4.1691133767       -1.6556749232       37.1703333345
  H         3.7425768013        0.0520250034       16.9985574566
  H         3.2407708917       -0.6646234892       18.4768756613
  C         1.6775000395       -0.4670287481       17.2039091168
  H        15.0370076741        0.8980848711       23.0258650542
  H        14.0720317886        1.4857913167       24.2380473147
  C        16.2153707857        2.1297008750       24.1485078852
  H        10.8442205311        9.1423969206       13.4691252610
  C        11.5445492693        7.6927492226       12.3155448134
  H         3.4813215897       -1.2342856802       37.9524531867
  H         3.7234201440       -2.6376145557       36.9478266500
  C         5.6214944735       -1.7892801470       37.6584085073
  H         1.4244460781        0.1084352299       16.3088683171
  H         0.9669356787       -0.2896297099       17.9909881980
  C         1.7399640058       -1.9778594150       16.7335148313
  H        16.2261719349        3.0933047449       24.6421715750
  H        16.2951250462        1.4628833405       24.9647984416
  C        17.4392352425        1.9529110107       23.2364413485
  S        12.1045962074        6.0970128348       11.9124374898
  C        11.7136520972        8.7129327917       11.2791150610
  H         5.7685229228       -2.3631599197       38.5750650337
  H         6.4097637288       -1.9858570496       36.9507807476
  H         5.9634247184       -0.8183531056       37.9127674579
  H         2.5509167057       -2.1835111515       16.0569686714
  H         0.7474718766       -2.3477434433       16.3633775067
  H         1.9422885784       -2.6017305177       17.6146548145
  H        18.2580230169        2.4499887949       23.6830610035
  H        17.3001374355        2.2802562781       22.2281251722
  H        17.6835006159        0.8800244447       23.2321853801
  C        12.6361349453        6.8376555665       10.3882679610
  N        12.3444451905        8.1507427011       10.2576788924
  O        11.2544185549        9.8662491608       11.2998961109
  S        13.3348873025        6.0818694566        8.9688993115
  C        12.4192616955        8.9024292631        9.0774491878
  H        12.4894337801        9.9489255277        9.1908290144
  H        13.3620991585        8.7248594559        8.5655348631
  C        11.2998876229        8.4548604704        8.0730866576
  H        11.1480641988        9.1417121724        7.2915275072
  H        11.4697959594        7.4892311269        7.5707147314
  H        10.3196797245        8.4460048821        8.5386687122
  H        -2.9284361889       14.6457018121       16.6839029891
  C        -2.9118635497       13.5290859350       16.5468762444
  H        -3.9730924203       13.2552514492       16.7959596218
  C        -2.2826086212       12.8712730169       17.7556176018
  C        -2.5741867077       13.0725238676       15.1452820455
  C        -2.2090433343       13.6250677501       19.0766554627
  H        -2.7244285761       11.9039393427       17.9847062533
  H        -1.2152737552       12.7658949572       17.5167430624
  H        -1.4872053107       12.8711032671       15.0944559999
  H        -3.1553364642       12.2271548368       14.7878896872
  H        -2.8456303300       13.8735992612       14.4779561616
  C        -2.0577945962       12.6186939556       20.3123247361
  H        -3.0732971330       14.2406544774       19.1981707384
  H        -1.3811346686       14.3258954366       19.1045748365
  C        -2.2096129383       13.3262796996       21.7079909231
  H        -2.8211966197       11.8485781427       20.3295334506
  H        -1.0526841021       12.1623537717       20.2587463595
  C        -1.1517391374       12.8571517426       22.8070521391
  H        -3.2253534021       13.1686954467       21.9472550859
  H        -2.1703701121       14.3605668484       21.5374542845
  C         0.1488726132       13.7194740223       22.9213668156
  H        -1.6348373981       12.7178452133       23.7356917295
  H        -0.9970660260       11.8286158618       22.6530249265
  C         1.3198998498       12.9111677176       23.5626053599
  H         0.5088997086       14.2527159059       21.9891401194
  H        -0.1475029145       14.5875475338       23.4803332234
  C         1.6903107134       11.5847250081       22.7814684550
  C         0.9807929136       12.1493584331       24.7839334997
  C         2.5708612821       13.8347745502       23.7144148329
  C         1.5039596922       10.4345876544       23.6234249469
  C         2.1389445107       11.2144235748       21.5022852084
  C         1.0205649882       10.8132095071       24.8840773383
  C         0.4038137610       12.8627391018       25.8553242645
  H         2.8484175443       14.4162843636       22.8137510727
  H         2.2988415372       14.4777307741       24.5766663708
  C         3.8198409483       13.1644583353       24.2378169036
  S         1.8675419547        8.9745864727       22.7788549021
  C         2.2167599322        9.8646500961       21.2796436748
  H         2.2987189459       11.9999128901       20.7726882668
  C         0.6334035891       10.2620672324       26.0903290136
  H         0.2278257870       13.9029830490       25.7161707576
  C        -0.0372339227       12.3183309990       27.0264566559
  H         4.1237768216       12.3412666356       23.6060174273
  H         3.6636375972       12.8791308495       25.2793680905
  C         5.0279478124       14.1319356993       24.2083558255
  C         2.4254153654        9.2638002701       19.9502322875
  C         0.1209753498       10.9814281716       27.1476645891
  H         0.6422097672        9.1920952406       26.1285579338
  C        -0.6529013213       12.6104241919       28.2409950071
  H         5.8052197709       13.6946124304       24.8186775877
  H         4.6856586979       15.1214848337       24.6255453704
  C         5.5983347004       14.3426976211       22.7893364102
  C         2.4431855634        7.8656817381       19.6634457446
  C         2.7017408531       10.1363004323       18.7505495302
  C        -0.4217006418       10.1875675885       28.3337298064
  C        -0.8218077947       11.5172876950       29.0903001620
  S        -1.1211147552       14.0576335788       29.0921004374
  H         6.3908009826       15.1051000480       23.0403700884
  H         4.9257239231       14.7563657482       22.0583653427
  C         6.2697804120       13.1488637583       22.2351932936
  N         2.3107110573        6.8813162744       20.5937413958
  C         2.8207893090        7.3563040780       18.4255721498
  C         3.0331224460        9.5621366530       17.5191895442
  H         2.7252137532       11.2721560390       18.8453198421
  C         0.6268130983        9.3165177271       29.1348190997
  C        -1.6469501341        9.2813853167       27.9961490207
  C        -1.2727139263       11.7909876111       30.3801278174
  C        -1.4277243820       13.1274722583       30.5140391520
  H         6.9402121493       12.7539354980       22.9692149890
  H         5.5592076444       12.3979131070       22.0926518276
  C         7.2081591030       13.3231600478       21.1627521191
  S         2.3168192312        5.4141763838       19.8748078836
  N         2.7729454843        5.9392266876       18.4398173752
  C         3.0944505566        8.1322120192       17.2751155724
  H         3.1361530024       10.1178494794       16.6280534386
  H         1.1886948491        8.5620339372       28.6258692083
  H         0.1538387234        8.7860734432       29.9238035912
  C         1.7778165599       10.1469924770       29.6345880918
  H        -1.3429895015        8.4926087748       27.2922056914
  H        -1.9464031863        8.7921924389       28.9920323950
  C        -2.7942331750       10.1527178635       27.3992852118
  H        -1.2261734532       11.0197344310       31.1787239327
  C        -1.7936504819       13.9231915604       31.7183492678
  H         8.0550329736       12.6213386926       21.1990561591
  H         7.7503158094       14.1921319342       21.3225474071
  C         6.6438712073       13.3348855137       19.7329159887
  C         3.3738970184        7.4898005188       16.0305662537
  H         2.1964522985       10.5619603756       28.7129406835
  H         1.5065478838       11.0879887482       30.1192337476
  C         2.8138623235        9.3706899917       30.4380545311
  H        -2.3799148989       10.7326339930       26.5338207527
  H        -3.0522403329       11.0789457213       28.0062969080
  C        -3.9416905021        9.3092686481       26.9483419852
  C        -1.8160656626       15.3385403917       31.9889828706
  C        -1.9456376238       13.0424658348       32.9488189594
  H         7.0969127613       14.0330162269       19.1105967634
  H         6.8172922556       12.4080938253       19.2194982290
  C         5.1010882640       13.5582118929       19.6136642762
  H         3.1541132253        6.4612231310       15.9263791540
  C         3.6826963616        7.9334767560       14.7632253341
  H         3.3671948386        8.8368302971       29.6989581227
  H         2.3155351210        8.7096774693       30.9865770419
  C         3.6441812340       10.2269672959       31.3861144975
  H        -3.5963179232        8.6781033226       26.1507246125
  H        -4.2725770639        8.6916606795       27.7377267054
  C        -5.1215595905       10.1679837486       26.4893917529
  N        -1.5536609324       16.3609509830       31.0597528049
  C        -2.0923003130       15.8877131796       33.2576537321
  C        -2.1886757981       13.6124132354       34.1765463848
  H        -1.8587573304       11.9298723743       33.0031935889
  H         4.5949724100       13.2464950771       18.7270248252
  H         4.6120789839       12.9317388537       20.3774262773
  H         4.7967578239       14.6345472890       19.7623579379
  S         4.2031415570        9.5383267645       14.3222270795
  C         3.7431692990        6.9453542593       13.6324229674
  H         3.7554394926       11.2719570774       31.0681241277
  H         3.2447108124       10.0769673015       32.4254448974
  C         5.1059504421        9.7372543210       31.4097404034
  H        -5.4060904841        9.8304989940       25.5408540696
  H        -4.8198931675       11.1545941962       26.3128573872
  C        -6.2405972009       10.0953870833       27.4527431457
  S        -1.4121476512       17.8041030297       31.8171229270
  N        -1.9268346899       17.2723801539       33.2909565853
  C        -2.3422916614       15.0661775447       34.3515936654
  H        -2.2986924053       12.9828462762       35.0393656102
  C         4.5334922806        8.8422851512       12.7073329532
  N         4.2456761259        7.5084649864       12.5348070743
  O         3.5465902365        5.7118190686       13.7816809530
  H         5.8086931795       10.4644901205       31.8392308911
  H         5.4298295945        9.6757907281       30.3968905869
  C         5.3107768452        8.3745663832       32.1133194508
  H        -6.5413597193        9.0649648428       27.5009754989
  H        -5.9694717000       10.2496403576       28.4723895939
  C        -7.4393268021       10.8834321447       26.9887991690
  C        -2.6837539223       15.7444763621       35.5406348517
  S         5.3081031262        9.6099587888       11.3328603075
  C         4.4774221525        6.7891621374       11.2875329167
  H         5.8387774505        8.5255999880       33.0372004458
  H         4.2736497120        8.0357463901       32.4582903898
  C         5.9845262350        7.3321517164       31.2234371732
  H        -6.9533750825       11.8556408936       26.8484900770
  H        -8.0707481877       11.2416479347       27.8276938759
  C        -8.0882236344       10.2689217081       25.8420148088
  H        -2.3566818564       16.7087260406       35.6411683875
  C        -3.2037777255       15.3644480780       36.7091528451
  H         5.3044251718        7.0972222332       10.5980527752
  H         4.8003907637        5.7866051027       11.5443562172
  C         3.2563936438        6.7980019152       10.3580653226
  H         6.8858984080        7.7150040199       30.7757680410
  H         5.2974093252        7.0765809362       30.4052487837
  C         6.2878976836        6.0881995078       32.1059167666
  H        -7.9522480442       10.8951231322       25.0086223277
  H        -7.6009800971        9.3785739752       25.4572605469
  C        -9.5901002771        9.9989506011       26.1507920604
  S        -3.7758751370       13.7893168151       37.1884586796
  C        -3.3157835798       16.4260005304       37.7444752067
  H         3.4611098732        6.0160980038        9.6203704683
  H         2.3457990973        6.4116845433       10.8217572156
  H         3.2402716813        7.7911879343        9.8922270751
  H         6.4327682912        5.1880720373       31.5333130462
  H         5.5286296968        6.0330959481       32.9344321381
  H         7.2893389954        6.1237116269       32.5037984094
  H        -9.9366280294        9.3205071106       25.4300531616
  H       -10.3012595505       10.8907127464       26.0601287398
  H        -9.8359821858        9.5722453725       27.1652856895
  C        -4.3266282348       14.5974959765       38.7000587351
  N        -4.0672836404       15.9501196305       38.7732849417
  O        -3.0950500618       17.6016933625       37.5817397591
  S        -5.2358995416       13.9408360098       39.9853082419
  C        -4.3228304639       16.7740252872       39.9607946779
  H        -4.4081185338       17.7698356794       39.5602298409
  H        -5.2116007708       16.4277342500       40.4883725794
  C        -3.1277396759       16.8022317240       40.9470111229
  H        -2.1988004927       16.7834629470       40.4236080336
  H        -3.1201093395       17.6715155719       41.5979152865
  H        -3.2419162494       15.8440705213       41.4734731659
