352
 i =    87800, time =    87800.000, E =        25.2198309455
  H         9.7753716984        7.0043187296       31.6436170180
  C        10.8017933203        6.9648918733       31.9004004020
  H        11.2074919988        7.9397583673       31.8397677675
  C        11.5130715668        6.1218055744       30.7676338709
  C        11.1271049708        6.2176404419       33.2272061649
  C        10.8008973581        4.9493627011       30.1586393579
  H        11.6727776740        6.9469853591       30.0224737384
  H        12.5078329090        5.8556802045       31.0913955260
  H        10.5813994463        5.3451713708       33.4980213614
  H        12.2339099501        5.9449170719       33.3224343708
  H        10.9351159860        7.0026461303       33.9648452831
  C         9.7449493925        5.2936862842       29.0775924274
  H        10.5459442547        4.3549726234       30.9986598540
  H        11.6293626770        4.4545981520       29.7223749607
  C        10.2712208281        5.5075335649       27.5820069444
  H         9.0643469724        4.3808656304       29.0643749466
  H         9.2398204318        6.1532203798       29.3605150852
  C         9.4170554685        4.8164925935       26.5441855133
  H        11.3010221500        5.0179738917       27.4264359352
  H        10.4310376542        6.4945657099       27.2665207397
  C         8.1853158705        5.5397193185       26.2095838800
  H         9.8469424409        4.6442091074       25.6017115216
  H         9.2850508241        3.7644916079       26.7876436682
  C         7.1617660435        4.6912382578       25.3742520092
  H         7.5723046240        5.8523406905       27.1065998625
  H         8.4068888592        6.4874169013       25.6175494125
  C         6.8597555512        3.3632078478       26.0345310496
  C         7.6111555059        3.8700371027       24.1892348811
  C         5.9254385295        5.4074688833       24.7977081675
  C         7.1150553355        2.1736061284       25.3001709203
  C         6.2996524837        3.0749898172       27.2538599256
  C         7.5736254812        2.5296854399       24.0794082492
  C         8.0524594624        4.5472014547       23.0996877952
  H         5.3169232126        4.6695818830       24.2512909576
  H         6.2538486456        6.1893235728       24.2639052432
  C         5.0255438618        5.8665369678       25.9439688556
  S         6.7050882683        0.7753287010       26.1960755813
  C         6.1210421137        1.7533756853       27.4806687335
  H         6.1980649324        3.9155226080       27.9723541053
  C         7.9056745514        2.0198495964       22.8093592689
  H         8.2960537167        5.5702520106       23.2382930211
  C         8.3963670388        4.0670458717       21.8844365520
  H         5.5155613086        5.4737128573       26.8468917648
  H         5.1300093093        6.9478141115       26.0663935306
  C         3.5426193032        5.4963232949       25.7622143580
  C         5.8139393350        1.2188629790       28.8083706570
  C         8.3646488126        2.7277821408       21.7620103223
  H         7.8452935633        0.9421185659       22.6686892709
  C         8.8614911718        4.5319079626       20.6788362583
  H         3.4807644676        4.4611914119       25.5380442673
  H         3.0986297225        6.0328432247       24.9175402481
  C         2.8338343400        5.8258969985       27.0225162193
  C         5.8733959500       -0.2167840527       29.1380863498
  C         5.2551602755        2.0800146726       29.8829086451
  C         8.6249470012        2.0793490081       20.4551359506
  C         8.8867480916        3.4340763438       19.8483821438
  S         9.2899660183        6.0200006621       19.9568803929
  H         1.9079447706        6.3866591052       26.8806004246
  H         3.3950383443        6.5509905069       27.6071720056
  C         2.4276646220        4.6205687361       27.8922440106
  N         6.2291328182       -1.2503400453       28.2451078912
  C         5.5672023160       -0.6843801928       30.3635496008
  C         5.0005795491        1.5678617605       31.1412486348
  H         5.1982975123        3.1724423187       29.7965913125
  C         7.5951576480        1.2132075002       19.7164090382
  C        10.0137005005        1.3868495900       20.3663863073
  C         9.3152688623        3.8508583472       18.5568021647
  C         9.4880999419        5.2262640950       18.4371147896
  H         2.0381232566        3.8724365430       27.2062524706
  H         3.3936331057        4.2333280119       28.4353896893
  C         1.2609644125        5.0387186786       28.7641019924
  S         6.1982288587       -2.6739985234       28.9770652246
  N         5.7042435931       -2.0731210576       30.4451399264
  C         5.2288458629        0.0895463245       31.4793603524
  H         4.5703151112        2.2337830478       31.8311347305
  H         7.4565731677        0.3496236114       20.2900051521
  H         8.0685590037        0.9634794678       18.7798795656
  C         6.2461475364        1.9415103257       19.3399058979
  H        10.2341820701        0.9018841439       19.3762979265
  H         9.8932114621        0.5183633000       21.0680985148
  C        11.2245650091        2.1901158448       20.9368455589
  H         9.4454571455        3.0997080193       17.7466261675
  C         9.8945631255        5.9309795215       17.2086818319
  H         0.7512320975        4.1303116221       29.0773949780
  H         0.5427255959        5.7222541444       28.2224959653
  C         1.6686911186        5.8208984406       30.0021824287
  C         5.0696884507       -0.4875566878       32.7471171872
  H         6.3443807010        2.7012380952       18.5756234721
  H         5.9638907451        2.5067639959       20.2432024563
  C         5.1534395302        1.0053659953       18.8867280146
  H        10.9408062547        2.8388973119       21.7337173214
  H        11.5956665590        2.9876141999       20.2218958074
  C        12.4082510287        1.3575721127       21.5386921799
  C        10.0544092146        7.3359565733       17.1193673961
  C        10.3882759915        5.1739005401       15.9963335993
  H         2.5286116705        6.4384717359       29.8031417564
  H         0.8484549852        6.4697845616       30.2922504123
  C         1.8923082062        4.9210530485       31.2547382903
  H         5.3676773992       -1.4933335728       32.7146885820
  C         4.8130737778        0.0585235102       33.9846885131
  H         4.9540947955        0.2908779620       19.7100015452
  H         5.5263571870        0.3957523038       18.0590910136
  C         3.9296845525        1.7114222142       18.3375493710
  H        12.1139205078        0.8559995971       22.4230252884
  H        12.6988680410        0.6376893782       20.7316146898
  C        13.6218171889        2.2639788266       21.8015223894
  N         9.7051727313        8.2411292843       18.1096895252
  C        10.5257976812        7.9712606214       15.9970419056
  C        10.7307980312        5.8093452073       14.8214470585
  H        10.1733912432        4.0915324882       15.9485500901
  H         1.7360446830        5.5910460574       32.1189505000
  H         1.1558900368        4.1056018429       31.2939864373
  H         2.9132240839        4.4927899871       31.1690866765
  S         4.5789246075        1.7028183333       34.4174760034
  C         4.7704161961       -0.8854688300       35.0715104178
  H         4.0414718714        2.7513902545       18.4909804117
  H         3.9160885502        1.5883870472       17.2468835862
  C         2.6312282498        1.1527633471       18.9429436774
  H        13.2837615574        3.0663707648       22.4320137843
  H        13.9075391087        2.7876651696       20.8441414371
  C        14.7461853994        1.4967692575       22.3853295488
  S        10.0600344388        9.7002176721       17.7335170380
  N        10.5185321969        9.3675240858       16.2035072212
  C        10.8294117504        7.2716684209       14.7815771668
  H        10.8916948899        5.2356268310       13.9059930840
  C         4.4321019426        1.1042127853       36.0533315648
  N         4.4592608841       -0.2461055168       36.2130833501
  O         5.0206702586       -2.0841162878       34.9338693395
  H         1.8692565864        1.8585356966       19.3019176840
  H         2.9963603498        0.8431434016       19.9119044901
  C         1.9145915646        0.1514319994       18.0241270189
  H        14.4960372112        0.9870818860       23.3805145307
  H        14.9564549054        0.7076495687       21.6922017764
  C        15.9374285574        2.4249744270       22.6857393868
  C        11.1738383145        8.0850927793       13.6322687618
  S         3.7794083301        1.9450042156       37.4083769059
  C         4.4854877535       -0.9655842230       37.4955708993
  H         1.0357507343       -0.1844618759       18.5373397924
  H         1.4976944103        0.7098150206       17.1742760341
  C         2.7538785895       -0.9978522729       17.4157368756
  H        15.5248012969        3.2681722603       23.2864379221
  H        16.2633591659        2.9385170552       21.7567730999
  C        17.0489575312        1.6355333897       23.3692355636
  H        11.1246556967        9.2068343029       13.6892379542
  C        11.5283888639        7.7360084256       12.3487175239
  H         4.0431557580       -0.4622974719       38.3317415909
  H         3.9224911428       -1.9053690710       37.5591711009
  C         5.9476815343       -1.0745038830       37.9108110479
  H         3.4648530626       -1.3086851990       18.1482273983
  H         3.2726846355       -0.8165777690       16.4533933345
  C         1.8094710653       -2.1952075224       16.9536781428
  H        17.1324686010        1.7091886446       24.4719013684
  H        16.9017362916        0.5923094391       23.1216017537
  C        18.4682352831        1.9017162912       22.9117345704
  S        11.8380225455        6.1420634326       11.8074361701
  C        11.7045836483        8.8530666010       11.3947796848
  H         6.4574560736       -0.1580976663       38.1442094829
  H         5.8950956383       -1.7675140342       38.8347492446
  H         6.4779804815       -1.6751813965       37.1151477241
  H         1.1275171639       -2.3916633202       17.7161653228
  H         2.3720741885       -3.0483292413       16.6333352512
  H         1.2088649794       -1.8842244088       16.0993942752
  H        18.7880228828        2.9449888198       22.8560633778
  H        18.6306126138        1.4873871654       21.9467317203
  H        19.1641080354        1.3773711616       23.5643465958
  C        12.4061485230        6.9234723613       10.3260385070
  N        12.2279521416        8.3352852844       10.3015710119
  O        11.4168788828       10.0172035002       11.6038615800
  S        13.1486270168        6.2112112686        8.8995755792
  C        12.5505622152        9.1935338224        9.1598907122
  H        12.8982823203       10.1203514353        9.5168938932
  H        13.2516129165        8.7569268196        8.4575923123
  C        11.3124530500        9.4358869101        8.3398662181
  H        10.3123502435        9.3564354406        8.8624980364
  H        11.3385863050       10.4513255472        8.0594071382
  H        11.3014468166        8.7826417303        7.4621247985
  H        -3.5913294441       14.4074812414       16.5338142768
  C        -3.0119924336       13.5631871977       16.4531981798
  H        -3.7673476315       12.7903699251       16.4872323745
  C        -2.1317823824       13.4315100288       17.5990197481
  C        -2.3462754555       13.3906585977       15.1442254578
  C        -2.6625513809       13.7896044788       19.0014074342
  H        -1.7045477723       12.3870906154       17.6381532894
  H        -1.2689686730       14.1003932323       17.3664906209
  H        -3.0477420569       13.7265121335       14.3129988904
  H        -1.4326509021       13.8942710374       15.2008014328
  H        -2.1495348866       12.4242283008       14.7782011735
  C        -1.6195135678       13.6729212094       20.0859516196
  H        -3.5156186971       13.1122345438       19.2074263644
  H        -3.0887851909       14.8089971939       18.9556178787
  C        -2.3047836909       13.5841608054       21.4687731584
  H        -1.2701996439       12.7197739168       19.8591769142
  H        -0.8023798433       14.3679109424       19.9517419326
  C        -1.3398789264       12.9493292034       22.4899578823
  H        -3.1193250081       12.8392664027       21.4300603636
  H        -2.8714476439       14.4399650361       21.7220553150
  C        -0.0341540904       13.8065956877       22.6915395446
  H        -1.8467452544       12.5863661825       23.3660382747
  H        -1.0782155853       12.0699236777       21.9172315086
  C         1.0853000053       13.0079855787       23.4177925077
  H         0.4049775629       14.1703896850       21.7668748874
  H        -0.2247973218       14.8303095314       23.1297449726
  C         1.3662785274       11.6606456591       22.6962251628
  C         0.6123601933       12.2169104437       24.6826667672
  C         2.4050011901       13.8855548999       23.6431347542
  C         1.1097641763       10.5271138969       23.4833816027
  C         1.7729600216       11.2360781178       21.4066988846
  C         0.6531758940       10.8702431206       24.7116592332
  C         0.0627045602       12.8176294133       25.7595220942
  H         2.6414297226       14.3853656860       22.7236118897
  H         2.1754226586       14.6213964401       24.4337537285
  C         3.6110871018       13.0736769494       24.0690667397
  S         1.5004627217        9.0041084330       22.7173943328
  C         1.9738283142        9.8945243905       21.3151482863
  H         1.8189576290       11.9863269378       20.6427430024
  C         0.2390418865       10.2309476008       25.8436637928
  H         0.0480523874       13.8859427254       25.7341224733
  C        -0.1818942263       12.1901528113       26.9764895212
  H         3.8288235928       12.3779307980       23.2063148226
  H         3.2937273983       12.5530307242       24.9804536228
  C         4.8085204958       13.9770204805       24.2252202181
  C         2.4143245298        9.2552721754       20.0374146476
  C        -0.1070763541       10.8504386100       27.0847045226
  H         0.2627545527        9.1634520101       25.8797779905
  C        -0.6170628559       12.5611708228       28.2444366852
  H         5.4445475315       13.5786017025       24.9207000139
  H         4.5931838894       14.9346706628       24.7332549910
  C         5.4875372477       14.2555509824       22.9136997988
  C         2.5117429261        7.9067576263       19.7344437925
  C         2.9408740757       10.0991045371       18.9247975715
  C        -0.5220921763       10.1151024229       28.3256520840
  C        -0.7894469125       11.4264107123       29.0314629133
  S        -0.9010187291       14.0245405519       29.0980930889
  H         6.2920917190       15.1272781768       23.0471639687
  H         4.8017196223       14.6868232086       22.2035006982
  C         6.3333129277       13.0509104388       22.4788815303
  N         2.2757251847        6.9139221189       20.6764150067
  C         2.7813724400        7.3324879871       18.5229657247
  C         3.2080538100        9.5738350766       17.6543680611
  H         3.1468548549       11.1913619384       19.1161078904
  C         0.4857277689        9.3532758435       29.1398902077
  C        -1.8235724468        9.2743366958       28.1998963634
  C        -1.1588408060       11.8219721373       30.3525815299
  C        -1.1961152305       13.1288604152       30.5399202493
  H         7.1153093446       12.7053479093       23.1710403773
  H         5.7787217258       12.1410156334       22.2799248256
  C         6.9837573577       13.2755313050       21.1098719156
  S         2.3321520875        5.4788757565       20.0052594524
  N         2.7502859475        5.8966596310       18.5433986659
  C         3.0711767241        8.0990091033       17.3867530736
  H         3.5837860768       10.1770255950       16.8714771836
  H         0.7582374278        8.4003409015       28.6148726471
  H         0.1587307110        9.1129618252       30.1528820332
  C         1.7835658101       10.0792174389       29.2388649364
  H        -1.7725921249        8.4918075798       27.4964727960
  H        -2.0409336061        8.8060940091       29.1641554477
  C        -3.0515117120       10.1028894495       27.9004250851
  H        -1.2856720467       11.0271394042       31.0830621297
  C        -1.6687320520       13.8486111295       31.7844173882
  H         7.7268137403       12.5207898084       20.9036686554
  H         7.3867370902       14.2790957668       21.2492066711
  C         5.9914340616       13.2438436611       20.0028497628
  C         3.3157708383        7.4422808958       16.1264781195
  H         2.1389136263       10.2859391989       28.2437694378
  H         1.7483653725       11.1354164035       29.6415340945
  C         2.8855329852        9.2449961800       29.7543381939
  H        -2.9060082875       10.6321401161       26.9686661879
  H        -3.2149875917       10.8962114421       28.6187146330
  C        -4.3525971022        9.3341074239       27.6668671078
  C        -1.8724874837       15.2313476995       31.9187995841
  C        -1.6870780193       13.0243521464       33.0661845694
  H         5.4261298693       12.3133365762       20.0684555184
  H         5.1969823692       13.9753289448       20.1359290082
  C         6.6983703788       13.4534065994       18.6418795263
  H         2.9994009913        6.3988749142       16.0596437290
  C         3.6995437916        7.8728693320       14.8986528434
  H         3.0524389917        8.5467447897       29.0342126088
  H         2.6133310854        8.7408430462       30.6896269149
  C         4.2128800883       10.0103089124       29.8874695573
  H        -4.3706930318        8.9882203074       26.6549371446
  H        -4.4985727019        8.5592357552       28.4685455266
  C        -5.6400131350       10.1060462665       27.7397676252
  N        -1.6072194876       16.1791745282       30.9325141823
  C        -2.1341618541       15.8473316953       33.0872196615
  C        -2.1072946429       13.6746576608       34.2494536064
  H        -1.5138790318       11.9374643897       33.0577502635
  H         6.8201264318       12.6042661474       17.9545026968
  H         6.0638857338       14.1718133067       18.0828721656
  H         7.7095337127       13.8360989766       18.8313378918
  S         4.0292301431        9.5214571455       14.4969952348
  C         3.7490640252        6.7925668831       13.8216628304
  H         4.5011380738       10.6758406786       29.0831683303
  H         4.0952844254       10.6644754206       30.7367960532
  C         5.5388387586        9.2308528382       30.1643415531
  H        -5.3664737290       11.0268527222       28.2391492259
  H        -6.2897048908        9.5391987439       28.4088022399
  C        -6.1453986971       10.2708439688       26.3579562387
  S        -1.7039058334       17.6793388316       31.5533505008
  N        -2.0681518314       17.2432208367       33.0221299204
  C        -2.3116981123       15.1597299416       34.2854606723
  H        -2.2064814370       13.0689033861       35.1738680501
  C         4.4031555174        8.8530797549       12.9286094426
  N         4.2445116764        7.4873809526       12.7985382088
  O         3.5636893019        5.5833005311       13.9028650679
  H         5.5350927893        9.0282387910       31.2205656476
  H         6.3424053170        9.8946845575       29.9933806271
  C         5.8599258554        7.8485486459       29.5548655505
  H        -5.4721118664       10.9513307690       25.8500895443
  H        -6.1242656001        9.2879941305       25.8308135775
  C        -7.4322585513       11.0146361346       26.2335179526
  C        -2.6899398917       15.9073465391       35.4341038334
  S         4.7705903601        9.7326916623       11.4423845456
  C         4.4012951662        6.7255354960       11.5381798676
  H         5.3372788769        7.7956675427       28.5809404179
  H         6.8525340953        7.7525806237       29.4470263164
  C         5.2997817295        6.6596536847       30.3674530570
  H        -7.6503627172       10.9619391435       25.1754657078
  H        -7.2144722099       12.0473793716       26.4651937351
  C        -8.4754918224       10.3758199938       27.1290310843
  H        -2.3936098722       16.9517651530       35.4412444491
  C        -3.3004473345       15.6667224247       36.6321508515
  H         5.0942313574        7.2164624734       10.8530163765
  H         4.8554004063        5.8184432400       11.7162566924
  C         3.0051014143        6.4967787461       10.8250543881
  H         4.8912303615        5.9477340790       29.6464510080
  H         4.4443095066        6.9219204387       30.9326560950
  C         6.4164105603        5.9515571596       31.2440400808
  H        -8.2792083527        9.3072570974       27.2713825785
  H        -8.4110177305       10.7665190678       28.1951245800
  C        -9.9070155266       10.6077257947       26.7271343032
  S        -4.1174121317       14.2551109161       37.1907719711
  C        -3.3131447891       16.7957017972       37.6390753683
  H         2.7668973595        7.1767479915       10.0061710410
  H         2.8960676371        5.4581418153       10.3783571910
  H         2.1863800959        6.6352149242       11.4608827934
  H         5.9853410568        5.5854973785       32.2481061408
  H         7.2757059844        6.5411094386       31.4723562214
  H         6.7960527728        5.0371740222       30.8471989617
  H       -10.1752102540       11.6342533530       26.8689689795
  H       -10.6488038453        9.9490668589       27.1207388802
  H        -9.9591749487       10.4485214450       25.7236824561
  C        -4.2234568503       15.0956328281       38.7835473596
  N        -3.9564114228       16.4147563122       38.7112436680
  O        -2.8130220831       17.9261169707       37.4432543808
  S        -4.8912103024       14.4436480361       40.3055176467
  C        -3.9190775823       17.2212074623       39.9058037990
  H        -3.9531272723       18.2439813877       39.4804093896
  H        -4.7828456270       17.1892049670       40.5632256828
  C        -2.6347456916       17.0444051902       40.7242499020
  H        -2.6793671369       16.0906016439       41.2602747559
  H        -1.7945082282       17.0311764014       39.9931737072
  H        -2.4820838061       17.8330593914       41.4693221775
