352
 i =    92600, time =    92600.000, E =        24.8495295408
  H        10.4269522123        7.0296853381       31.5495587067
  C        11.2501008105        6.3836085282       31.8583289943
  H        11.8109114493        6.9699221912       32.6055387358
  C        12.0342901664        5.9099270483       30.6499439391
  C        10.7826966494        5.2819095711       32.7788995513
  C        11.2887165403        5.0934382208       29.5432614938
  H        12.4016094131        6.8479878529       30.2958659912
  H        12.8363023538        5.3079214460       30.9246198227
  H        11.5282986961        4.8970948239       33.4846177550
  H         9.9148374140        5.5864209010       33.3998299901
  H        10.3776631958        4.4485253539       32.1139043553
  C        10.3733858435        6.0290893581       28.7024408710
  H        10.7382666413        4.2959759327       30.0206168195
  H        12.0631092819        4.6209221730       28.8732126572
  C        10.6221692440        5.9803921027       27.1929974154
  H         9.3548863720        5.8467562342       28.9580291592
  H        10.6154969791        7.0578393971       29.0307901294
  C         9.6603541879        5.0043685821       26.5378988214
  H        11.6250531352        5.5885155601       26.8421995152
  H        10.6019775816        7.0051178107       26.8382929661
  C         8.3629433626        5.7574882237       26.1331728298
  H        10.1077082587        4.6033316338       25.5427112460
  H         9.4822396897        4.1111068675       27.1792198010
  C         7.2872686917        4.8598756303       25.4555391579
  H         7.8126820488        6.1951420341       26.9710174298
  H         8.6694642631        6.6456982399       25.5315708438
  C         7.1495297678        3.5179904181       26.2264157488
  C         7.7061511604        4.1850071098       24.2842688982
  C         6.0029338551        5.6912534363       25.1649097849
  C         7.2253441185        2.4249836021       25.3974023488
  C         6.8386307694        3.1595069833       27.5715201775
  C         7.7372331973        2.8329593491       24.1991754006
  C         8.2089256940        4.8498439188       23.1672538239
  H         5.4528176860        5.1451419278       24.3590698890
  H         6.2027195352        6.6185486203       24.6924526485
  C         5.0625336693        5.8547405081       26.3688638701
  S         6.8455984629        0.9833688209       26.1555875114
  C         6.7128741630        1.7964699481       27.6727598481
  H         6.6098816656        3.8812093100       28.3836325858
  C         8.2676708492        2.2638785066       23.0976182079
  H         8.2356151214        5.9202855802       23.2199548357
  C         8.7285989317        4.2723516074       22.0698707155
  H         5.1882486685        5.0791197347       27.1014677339
  H         5.3178144620        6.8189824978       26.7875063005
  C         3.6686133757        5.7485993225       25.8909148616
  C         6.2394171616        1.1314779890       28.8845928291
  C         8.7903092921        2.9152098013       21.9446717128
  H         8.2926424477        1.1715057542       23.1164977234
  C         9.1741975161        4.6534564765       20.8553995956
  H         3.4027991678        4.7703862668       25.4768029039
  H         3.4269138828        6.5087014136       25.0937042947
  C         2.6289522115        6.0572873481       27.0038223701
  C         6.1513355056       -0.2514991719       29.1113699639
  C         5.7033541069        1.9275643211       29.9574102028
  C         9.3002039063        2.2540612009       20.6793336634
  C         9.4251233245        3.5987698814       20.0096820184
  S         9.2888888523        6.1421110931       20.1057766496
  H         1.6817816773        6.3440225153       26.5278924675
  H         2.8830921644        7.0134182202       27.5473726522
  C         2.3576060572        4.6993431505       27.7803728747
  N         6.6158197705       -1.2504263848       28.2869580601
  C         5.8412352074       -0.8018551331       30.3251021895
  C         5.3148843419        1.3550507041       31.1812732286
  H         5.6823626825        3.0266388972       29.9102736458
  C         8.1417038109        1.4287977694       20.0077532065
  C        10.6011968396        1.5046698327       20.8236216479
  C         9.7168717095        4.0114206048       18.7154022326
  C         9.6867018685        5.3521033788       18.5993430230
  H         2.0158812991        3.9187600632       27.0500630398
  H         3.2790907712        4.2041395277       28.1382456074
  C         1.3991077871        4.7390341701       28.9849473170
  S         6.4531608815       -2.7445171306       28.9307002825
  N         6.1057372483       -2.2043993511       30.3745488941
  C         5.3614522849       -0.0029422746       31.4052987735
  H         5.0087556046        2.0144300306       31.9360515611
  H         8.0670953323        0.4675504192       20.6273800101
  H         8.4908279010        1.1355121715       18.9915619499
  C         6.7885723915        2.1138553657       19.9643253896
  H        10.8587626475        0.9146675548       19.8965290799
  H        10.6129436048        0.8226087493       21.6523501793
  C        11.7599045972        2.3317524727       21.2512587657
  H         9.8572902180        3.2387603712       17.9036609568
  C         9.9770876849        6.1837137524       17.3652958664
  H         1.0203813785        3.7261186395       29.2048489100
  H         0.5240429277        5.3403707417       28.7762190721
  C         2.0676554703        5.5190996544       30.1612461501
  C         5.1783290249       -0.7008899222       32.6796642055
  H         6.8678910268        3.1489144860       19.7703552814
  H         6.3979151451        2.1617776266       21.0232067518
  C         5.8490418625        1.4280134951       19.0237941194
  H        11.6061021481        3.0290101349       22.0810206395
  H        12.1063575200        2.8333865591       20.3424482694
  C        12.9547721509        1.4381166789       21.6867797889
  C        10.1047217654        7.5705677013       17.3178089785
  C        10.1151037945        5.4819625529       16.0679461747
  H         2.1159879165        6.6485188826       29.9659513215
  H         1.4181127053        5.4812144269       31.0016764318
  C         3.4849145103        5.0707075646       30.5617752664
  H         5.5840561995       -1.6404970592       32.6154387367
  C         4.8450302579       -0.2753439741       33.9465789795
  H         5.9628993129        0.3954151352       19.1848319570
  H         6.0305391817        1.6432101984       17.9512588456
  C         4.4440914631        1.9417013544       19.2623557580
  H        12.7848066658        0.6980339238       22.4658793371
  H        13.2938011449        0.8868977328       20.8920617323
  C        14.0521446599        2.3578431277       22.1539370883
  N         9.8024036046        8.4574897710       18.3513200855
  C        10.4019999961        8.2578978832       16.1419533197
  C        10.5404955674        6.1365948283       14.9308447834
  H         9.9149650277        4.4351802993       16.0666050757
  H         3.8183484389        5.5158428885       31.4926560154
  H         3.4771489481        4.0048121509       30.7794235469
  H         4.1862910648        5.3126933627       29.8320292807
  S         4.5698820981        1.3583030663       34.4949959101
  C         4.9279065699       -1.3775895202       34.9427070474
  H         4.5532833078        2.4843895050       20.2230030150
  H         4.2229348286        2.6636380354       18.5106315122
  C         3.4131866610        0.8038531691       19.3588603018
  H        13.6625388671        3.0605782930       22.9733620330
  H        14.1732181309        2.9589984029       21.2562012311
  C        15.3205846515        1.6744825910       22.5381014214
  S        10.0964312913        9.9613019486       17.8617127819
  N        10.4072669459        9.6048666459       16.3058339075
  C        10.7288280437        7.5870735114       14.9456102624
  H        10.6367609099        5.6549659094       13.9995145102
  C         4.5292186305        0.5740088570       36.0416976657
  N         4.6597713693       -0.7618048447       36.0495205074
  O         5.1578042736       -2.5787360124       34.7607527749
  H         2.5250699325        1.3327580534       19.6233959862
  H         3.8032220606        0.1982064568       20.1416941030
  C         3.0996160284        0.0166930120       18.0888049800
  H        14.9847059433        0.9343868045       23.2662046047
  H        15.9159992652        1.1284518241       21.8197317408
  C        16.1450748862        2.5761797219       23.3544495667
  C        11.0982140597        8.4055551381       13.8282452119
  S         4.1348809260        1.3224969169       37.5841853757
  C         4.5791682307       -1.4662273491       37.2605095960
  H         3.0042758611        0.7335645695       17.2062935399
  H         3.9956499425       -0.5437533525       17.7463567732
  C         1.8509473165       -0.8262785459       18.3199859504
  H        15.5596870603        3.2475107230       23.9787870530
  H        16.4299114543        3.3808120515       22.6638657378
  C        17.2221702590        1.8089951571       24.1308142765
  H        11.0222960548        9.4652443303       13.8952226470
  C        11.5638995152        8.1315754900       12.5939180165
  H         3.7860225909       -1.1099949892       37.9653883422
  H         4.2397770017       -2.5010310688       37.1578910983
  C         5.9738226708       -1.5796429239       38.0460862226
  H         0.8943661282       -0.2595051771       18.3108104728
  H         1.8707040116       -1.3597011764       19.2424164369
  C         1.6097811641       -1.8328044009       17.2219852940
  H        17.4463720277        2.3339751374       25.0480643970
  H        16.9219911407        0.7808070583       24.3660645035
  C        18.4233985767        1.4877947945       23.3519039057
  S        11.9507534805        6.6029451192       11.9093768395
  C        11.7444437889        9.2408413501       11.6169360073
  H         6.5230573548       -2.4350104252       37.5788701763
  H         6.5588364600       -0.6712040677       37.7319307651
  H         5.8972034159       -1.7772595625       39.1004369577
  H         2.0699373292       -2.8156751324       17.3983335091
  H         1.9803367764       -1.5184590653       16.2252390988
  H         0.5915703512       -2.1274417912       17.0708782188
  H        19.0317990446        0.7824719221       23.8778021581
  H        18.9916370307        2.4244417547       23.2269578444
  H        18.1407510966        1.0941809653       22.4125115178
  C        12.3839500341        7.4470452519       10.4407988984
  N        12.2221861557        8.8167289088       10.4586622450
  O        11.3237829033       10.3972354734       11.8845578821
  S        13.1029605344        6.6286626458        9.0460419339
  C        12.4314061067        9.6395583049        9.2886629280
  H        12.6351310423       10.6971725282        9.6060715156
  H        13.2199266215        9.2884811893        8.6456265101
  C        11.1910934916        9.5813863245        8.3629073017
  H        10.4767527992       10.4329437023        8.3582329706
  H        11.6343651415        9.5846511650        7.3473663559
  H        10.6996068111        8.6434572527        8.6311048940
  H        -4.0932926573       14.7717677066       16.6678049015
  C        -3.4848561688       13.7632738265       16.6990515263
  H        -4.0904511336       13.0041143197       17.1116724149
  C        -2.3293396727       13.8597836409       17.6560799969
  C        -3.0640860740       13.4152914781       15.2907803875
  C        -2.8185840671       13.7562114822       19.0688960704
  H        -1.5873399077       13.1279059968       17.4157979069
  H        -1.8408546511       14.8910790704       17.5949367000
  H        -3.9735993065       13.1920243062       14.6993128284
  H        -2.4852350892       14.2204423754       14.8563787120
  H        -2.4634824455       12.4863984495       15.3680888172
  C        -1.6559771655       13.8174020009       20.0487759874
  H        -3.4895347213       12.9276956083       19.0832719092
  H        -3.5275534780       14.6601693727       19.2279718156
  C        -2.1165648919       13.6439315807       21.4723319907
  H        -0.9235844717       13.1703370992       19.7257021286
  H        -1.1337663032       14.8653014074       19.9621603824
  C        -1.1429174012       12.9156772195       22.4125188929
  H        -3.0562108671       13.0236603926       21.5414133969
  H        -2.3745081220       14.5731261074       22.0102072623
  C         0.0118748974       13.8668810299       22.7543074446
  H        -1.6296311295       12.6803587092       23.3911279768
  H        -0.7337985598       11.9966592685       21.8881164257
  C         1.2267734893       13.1718451032       23.4234675421
  H         0.2291823815       14.3593929704       21.7596383006
  H        -0.2909482186       14.5809444011       23.5100480334
  C         1.5504402650       11.7574327805       22.7395430498
  C         0.7780195931       12.4406393144       24.7049631248
  C         2.4837516654       14.0669974816       23.5590912130
  C         1.2304622594       10.6880014775       23.5688570352
  C         2.0488229388       11.3946713826       21.5251569470
  C         0.7345576831       11.0906231222       24.8187360143
  C         0.2591131020       13.0232474682       25.8460538332
  H         2.7221527401       14.5432864532       22.5582538238
  H         2.2230119583       14.9196577259       24.2290569631
  C         3.7983322829       13.3359828320       24.0954809859
  S         1.5495020167        9.1912754515       22.8003978715
  C         2.1850958443       10.0399614192       21.4401944372
  H         2.3407209352       12.1665898348       20.9368607889
  C         0.3022273192       10.4328682996       25.9312196499
  H         0.2901083830       14.1083905396       25.7722810594
  C        -0.1680555551       12.4152640870       26.9868260753
  H         4.0814431991       12.5444862845       23.4113970118
  H         3.6903049086       12.8100193490       25.0082100039
  C         4.9641506268       14.2991771992       24.1044469127
  C         2.7446641517        9.2848042029       20.2271441070
  C        -0.1151752983       11.0503611152       27.0705308059
  H         0.4148087081        9.3443830063       26.0225362101
  C        -0.5458851758       12.7187326427       28.2440421996
  H         5.7039272160       14.0289203278       24.9265362425
  H         4.5576470078       15.3486017223       24.3839195945
  C         5.8168301111       14.4591321361       22.8202232519
  C         2.5400291718        7.8891203879       19.9532936678
  C         3.3451723148       10.1058597645       19.1491639441
  C        -0.4259442555       10.2610174388       28.3795841434
  C        -0.6775229219       11.6301806475       29.0820617522
  S        -0.7533723661       14.1868817445       29.1712547516
  H         6.3117172007       15.3876362653       23.0727500316
  H         5.2988554797       14.5335831046       21.8504024528
  C         6.9213016585       13.4507206733       22.7152908394
  N         2.2091477306        6.9772461622       20.9152707224
  C         2.8877159422        7.3129863089       18.7380142799
  C         3.6273796115        9.5411479374       17.8809995736
  H         3.5267524025       11.1991377038       19.2954136467
  C         0.6718590774        9.3588477357       28.8508891562
  C        -1.6985982394        9.4654680753       28.2804499121
  C        -1.0004561857       11.9741529073       30.4559244818
  C        -1.0644268270       13.3169741530       30.6002548958
  H         7.3703440285       13.5594042434       23.6790284056
  H         6.2580604833       12.5759697831       22.6640859870
  C         7.8410713055       13.5180335516       21.5525276417
  S         2.2328582325        5.5516723152       20.2370116768
  N         2.5944969009        5.9398278336       18.7477765193
  C         3.3860773317        8.0827348238       17.6220919104
  H         4.0764180997       10.1290667837       17.1803400859
  H         0.7448684810        8.4480466706       28.2301639030
  H         0.4232655574        8.9940548299       29.8581486910
  C         2.0108259276       10.1756371622       29.0480999016
  H        -1.4371334987        8.7410982766       27.5292878919
  H        -1.9308021272        8.8551724749       29.2115336889
  C        -2.9770751709       10.1431794707       27.8151356813
  H        -1.1744986932       11.2024549039       31.1989120173
  C        -1.2373833141       14.0556977029       31.8925892164
  H         8.6991368803       12.8955686077       21.6996654887
  H         8.2548753759       14.4371707660       21.5797247295
  C         7.1747988097       13.2027242578       20.2410778912
  C         3.5862875146        7.3164421934       16.4359775647
  H         2.2493734984       10.7223198189       28.0953424102
  H         1.8321943066       11.0475450104       29.7265438422
  C         3.2763833243        9.4269656636       29.5588228218
  H        -2.7917631014       10.5879879870       26.7936634533
  H        -3.3257280592       10.9420115383       28.4436995817
  C        -4.0335344738        9.0572381661       27.7153201084
  C        -1.3979174114       15.4496538362       32.0328793431
  C        -1.4477344667       13.2981731002       33.1524997714
  H         6.7588675596       12.2334469416       20.3571600507
  H         6.4022947170       13.8600387251       19.9999220843
  C         8.1152491150       13.3548148102       19.1145441854
  H         3.5925836174        6.2827805752       16.5557081704
  C         3.9474203601        7.7111383934       15.2267243200
  H         3.6111504936        8.7465213946       28.8048774484
  H         3.0539865314        8.8908052197       30.5183257141
  C         4.3761775970       10.3789542843       29.8604272159
  H        -3.8572904434        8.3375853012       26.9405840050
  H        -3.9982510377        8.3924080370       28.5871517447
  C        -5.4990630439        9.6416510697       27.5350378629
  N        -1.2698427741       16.3905261492       31.0053331534
  C        -1.6442036729       16.0850304233       33.2777249121
  C        -1.6949336511       13.9429967095       34.3645346628
  H        -1.4493231681       12.2870555887       33.1310476502
  H         8.7479424512       12.4914474531       19.2944411429
  H         7.5612510781       13.1449592051       18.2417649961
  H         8.6544221978       14.3092450243       19.2047066211
  S         4.1719431631        9.2688432127       14.5904011348
  C         3.9821490874        6.6270005906       14.2155055447
  H         4.7278267756       10.8462580575       28.8828601807
  H         3.9600281908       11.2033983929       30.4580068216
  C         5.5352249179        9.8201363433       30.5986563447
  H        -5.6320608742       10.5673872593       28.0665998012
  H        -6.3183243681        8.9399226062       27.8828016954
  C        -5.5807280462       10.0429812760       26.0666391378
  S        -1.5008352362       17.8635179575       31.6891011504
  N        -1.8748053957       17.4112535992       33.1966130220
  C        -1.8965766459       15.4061579379       34.4703570218
  H        -1.8887246679       13.3959659259       35.1906349051
  C         4.1917870851        8.4418057105       13.0059784337
  N         4.2209656476        7.1117875646       13.0503291635
  O         3.6722071645        5.4599015689       14.4280436550
  H         5.1541794125        9.4491637006       31.5714714988
  H         6.3512534825       10.5166072576       30.8867293396
  C         6.2651682654        8.7017912677       29.8536025308
  H        -4.6380741557       10.5157698111       25.6513902357
  H        -5.7052020246        9.1130165388       25.4192638219
  C        -6.6510480468       11.1277020736       25.6505473057
  C        -2.2675511879       16.1677996786       35.6241410425
  S         4.6689816860        9.1158458196       11.4227268101
  C         4.3142976183        6.3144150252       11.8231233675
  H         6.2016728747        8.9140221298       28.7647832507
  H         7.2907243923        8.6363691305       30.0587352365
  C         5.8110626847        7.2851716871       30.1701619679
  H        -6.7548124918       11.1175062893       24.5405246446
  H        -6.3096796158       12.1148307350       26.0207273664
  C        -8.0439526468       10.8528961970       26.1765794622
  H        -1.9275569069       17.2306082830       35.6434704551
  C        -2.7793546982       15.7557110072       36.8597224003
  H         4.9278456765        6.6317104077       10.9376738831
  H         4.8045120771        5.3670019219       12.2086689719
  C         2.8174011751        6.0632163767       11.4303973630
  H         5.5679629389        6.7470725262       29.2187199157
  H         4.8963086976        7.3400624372       30.7044670130
  C         6.8238435970        6.4877858755       31.0067073749
  H        -7.9999922489       10.6729616778       27.3099296390
  H        -8.5886139009       11.7624924317       25.9181928811
  C        -8.6525681459        9.5475756035       25.7032127184
  S        -3.2376539991       14.1399489839       37.3021397628
  C        -3.0654393870       16.7331502927       37.9314479793
  H         2.7230621183        4.9948507231       11.3346805872
  H         2.0907985037        6.4988570714       12.1763470649
  H         2.6100944945        6.4473552570       10.4435007308
  H         6.6834787782        6.7077067635       32.0231370696
  H         7.8488244481        6.8091454306       30.6927711267
  H         6.7022088081        5.4639815495       30.9079664255
  H        -8.4648979912        8.6123642304       26.2680254068
  H        -8.3949365368        9.4641994817       24.6367570762
  H        -9.7184748909        9.6125816061       25.7074843255
  C        -3.7548593988       14.7629301757       38.8390765124
  N        -3.7000713163       16.1284841547       38.9909384751
  O        -2.7379194761       17.8768814807       37.8388518982
  S        -4.4008503059       13.7119477095       40.1342211724
  C        -4.0596190103       16.8860712084       40.1841290848
  H        -4.2870333771       17.8972346696       39.8751672649
  H        -5.0202184546       16.4910153647       40.6446109561
  C        -2.8502272465       17.1146069389       41.1369844692
  H        -3.0013677135       16.4533697407       42.0198739621
  H        -1.9544659680       16.7640710206       40.6324242370
  H        -2.8480478399       18.1575832009       41.5153732818
