352
 i =     4200, time =     4200.000, E =        34.9653955155
  H        12.2978294237        6.0843812580       32.2015344509
  C        11.2296110826        5.7529247273       32.5325013786
  H        11.3104285910        4.6976033728       32.6245140719
  C        10.2764998337        6.1979145946       31.4067022377
  C        10.7886597209        6.2476573735       33.9301840573
  C        10.7070622948        5.8776456217       30.0188203394
  H         9.3517270163        5.6349915818       31.4673926783
  H         9.8903404217        7.2520852868       31.4739998584
  H        11.4312870209        7.1263735979       34.0382430022
  H         9.7714650286        6.5362292242       33.8857890502
  H        10.8521709110        5.5746829944       34.7737404632
  C         9.5799429485        5.4034442794       28.9738050937
  H        11.4749984956        5.1609694073       30.0426434078
  H        11.2013938076        6.7519699513       29.5223285944
  C        10.1112690015        5.6480440063       27.5109358022
  H         9.3185710833        4.3175656244       29.1250667456
  H         8.6278271392        5.9120680269       29.1637714393
  C         9.2040281349        5.0152294830       26.4513978516
  H        11.1788578438        5.4510473969       27.4294676464
  H        10.0540453723        6.7280651980       27.3533142793
  C         7.9344565199        5.8212052207       25.9754778444
  H         9.6517493502        4.6588569233       25.5449961631
  H         8.7123733206        4.1299986807       26.8562901273
  C         6.7550414319        5.0469235684       25.1898414935
  H         7.4730189723        6.4053285435       26.8104436440
  H         8.2375432868        6.6654745982       25.3805418490
  C         6.4152128870        3.7426081099       25.9240563158
  C         7.3394313042        4.3092342682       24.0195419013
  C         5.4919831841        5.9891728794       25.0198136488
  C         6.8898111779        2.6481067780       25.1778509052
  C         5.9614131662        3.4035517648       27.1661144061
  C         7.2783078993        2.9850350413       23.9513002166
  C         7.8901805033        4.9683875048       22.9236334560
  H         5.7141840439        6.7855877751       24.1869123024
  H         5.3998981910        6.6759304607       25.8444180344
  C         4.2208555956        5.2696927006       24.6459521529
  S         6.6490209249        1.1590941476       26.1245946513
  C         5.9876474114        2.0615135722       27.4929229503
  H         5.6950271888        4.2797821293       27.7815003043
  C         7.8140738916        2.3529730483       22.8378378046
  H         7.7343599957        6.0659871588       22.9071609221
  C         8.3569582970        4.3941075285       21.8078850969
  H         4.1903770701        4.8230763857       23.6661772152
  H         3.9037281469        4.4775751356       25.2372456163
  C         2.9225499017        6.0837066671       24.8342542795
  C         5.7177956067        1.3859464162       28.7728855987
  C         8.2951145555        2.9875699221       21.7363816254
  H         7.6161918384        1.2773977918       22.7806532792
  C         8.7632260395        4.7642205261       20.5268295331
  H         2.1345168853        5.4933551143       24.3168852240
  H         2.9410822981        7.0012070714       24.2117865776
  C         2.4467069695        6.2822263633       26.2850284747
  C         5.7232477834       -0.0520630761       29.0556805152
  C         5.3717678104        2.2414191584       29.9388501313
  C         8.7186940791        2.3059405753       20.4375009011
  C         9.0767033758        3.6923173352       19.7404341874
  S         9.0483045273        6.2658958007       19.9243250843
  H         1.7504031264        7.1219923379       26.2459235892
  H         3.2383497709        6.3543238167       26.9607955457
  C         1.7000295468        5.0320369810       26.8058251290
  N         5.8644617124       -1.0699567011       28.0719460974
  C         5.4709569822       -0.5574003663       30.3206227795
  C         5.1085295767        1.6353846437       31.2040122419
  H         5.3140431193        3.3816940539       29.9064033953
  C         7.5132690735        1.6733480807       19.6608480832
  C        10.0242654023        1.4242814653       20.4277230148
  C         9.5767720444        4.1173722751       18.5223718622
  C         9.4949326732        5.5048500017       18.4373535311
  H         1.1000210408        4.8827930490       25.9596951459
  H         2.2587187763        4.0847738843       26.9112949625
  C         0.7459661702        5.2959570822       27.9855212313
  S         5.6962236596       -2.5117383457       28.8590755819
  N         5.4814251079       -1.9352279037       30.3460648372
  C         5.2491942164        0.2122436134       31.4770555589
  H         4.8593070973        2.2289996968       32.0799598593
  H         7.0826000675        0.7725329831       20.2562985454
  H         7.8358921443        1.2318260659       18.7438233526
  C         6.3324748124        2.5495713182       19.3487235565
  H        10.2451493515        1.1580483805       19.4046732168
  H         9.9490300406        0.5667379071       21.0996964543
  C        11.2835655985        2.2363887224       21.0291293523
  H         9.7587675325        3.3644482369       17.7702338068
  C         9.7538900827        6.3487000539       17.1537074070
  H        -0.0371101821        4.5051276434       28.0371560741
  H         0.1952790322        6.2173644632       27.8881889086
  C         1.5422339769        5.4487850674       29.2725612283
  C         4.9470283057       -0.4156761594       32.6839198622
  H         6.7408496170        3.4243400715       18.8716855397
  H         5.9080674004        2.7221983306       20.3175112787
  C         5.4305996876        1.6743464578       18.4323503591
  H        10.9108483187        2.6520410387       21.8889943735
  H        11.6499083773        2.9701842368       20.3452753530
  C        12.4194192328        1.3821311935       21.4744640355
  C         9.8692681210        7.7669775809       17.0702326641
  C         9.9827069882        5.5631646699       15.9062692876
  H         2.2687481049        4.5878930700       29.3462687314
  H         2.2063714534        6.3314077063       29.2160200998
  C         0.7945292595        5.6576526300       30.5991901740
  H         4.9733067513       -1.4630595602       32.7294769015
  C         4.6748430139        0.0129539964       33.9464130411
  H         5.5164411574        0.5950610033       18.5995294474
  H         5.8035809720        1.7446212212       17.4418547279
  C         4.0041142634        2.1920767235       18.4102003994
  H        12.1502459739        0.5615671694       22.1252601134
  H        12.7709845509        1.0672803540       20.5450862264
  C        13.3928984963        2.3135394190       22.1953228488
  N         9.4113841428        8.6188663777       18.0411545514
  C        10.2095015182        8.3989083327       15.8801108969
  C        10.3730643057        6.2175130690       14.7764349157
  H         9.5089458926        4.5973420120       15.7582408207
  H         1.6743513349        5.7406319625       31.3393874876
  H         0.2452001990        6.4857601383       30.6945708422
  H         0.0352697572        4.9032842265       30.8496314958
  S         4.2879350251        1.5587371790       34.5439580019
  C         4.5444366795       -1.1136745816       34.9756538125
  H         3.9237667356        3.1124437152       18.8880797904
  H         3.5322634591        2.2608285175       17.4063416144
  C         3.0466817534        1.2168940171       19.1095198351
  H        12.9756439089        2.8252172602       23.0338118646
  H        13.5886908942        3.1376616777       21.4626241571
  C        14.6271359148        1.6270906090       22.6440548049
  S         9.6537927596       10.1806648815       17.4635838772
  N        10.0813361047        9.7735407945       15.9710543840
  C        10.4516881654        7.7096491526       14.6914621845
  H        10.2732628881        5.6209792361       13.8928295399
  C         4.2702456367        0.7798305194       36.1535199719
  N         4.1840968226       -0.5514739748       36.1159391778
  O         4.9352566080       -2.3097926991       34.7929992679
  H         2.0820604205        1.6834120574       19.3574177808
  H         3.3519689795        0.9454976836       20.1296695989
  C         2.6721860573       -0.0249942028       18.2911055449
  H        14.2886004395        0.6994227633       23.1543942340
  H        14.9413314456        1.1145992653       21.6733570195
  C        15.6043996962        2.5574698407       23.4687896315
  C        10.7524348989        8.4176288820       13.4879734474
  S         3.7415150445        1.5789126733       37.6168189550
  C         4.2125712540       -1.3159352237       37.2981824104
  H         2.3183802144        0.2439024498       17.3073944785
  H         3.5051587691       -0.6584231049       18.0362410517
  C         1.6721104327       -0.8917977112       19.0993960461
  H        15.2720617713        2.5500752299       24.4680772944
  H        15.4948234115        3.6198517399       23.1281090467
  C        17.0262656139        2.1298984542       23.2961584718
  H        10.7184988136        9.4946744947       13.6070095447
  C        11.2754946246        8.0313737699       12.3307023869
  H         3.2836792277       -1.3229438569       37.8198536580
  H         4.1667653065       -2.4368000812       37.0581044755
  C         5.5164991943       -1.1540764918       38.2561370144
  H         0.7042972201       -0.4467812299       19.2978653877
  H         2.1206513171       -1.1752941623       20.0566217749
  C         1.4212861536       -2.1333925999       18.2793651016
  H        17.6661028092        2.4961160785       24.1209064609
  H        17.0713077214        1.0283252828       23.3162303158
  C        17.7660329215        2.6010466574       22.0656778853
  S        11.8912283384        6.4645841979       11.9070576836
  C        11.6159224042        9.0813349269       11.3497519594
  H         6.3581187782       -1.2010101649       37.5696333948
  H         5.5048284516       -0.2447322725       38.7915689262
  H         5.6113510420       -1.9419473024       38.9884418623
  H         2.3086586809       -2.6101951878       17.9937035863
  H         0.9079869224       -2.0289940971       17.4237268442
  H         0.9459831605       -2.9853480111       18.7144203246
  H        18.0170904416        3.6544584617       22.3206230859
  H        17.1172492461        2.7414604540       21.1798032938
  H        18.5396678962        1.9168066038       21.8268584977
  C        12.2824763553        7.1889247917       10.3303154659
  N        12.0757626422        8.5271181053       10.2450498139
  O        11.4137552535       10.3046422580       11.4723453736
  S        13.0144188900        6.4048808714        9.0431425052
  C        12.2291728779        9.2104112881        9.0505429469
  H        12.4399736006       10.2768358834        9.2056231043
  H        13.2363183109        8.8984286431        8.7085566322
  C        11.0092447665        9.1509479484        8.0959054511
  H        10.1067976173        9.2632100377        8.6073142372
  H        11.0553954360        9.9337072090        7.3711384652
  H        11.0839657125        8.1420153270        7.5301726329
  H        -4.2764098589       12.5341688416       16.6635991919
  C        -3.2047517644       12.9757112173       16.7095586015
  H        -2.5796394699       12.2327543640       16.9900024473
  C        -3.1940087789       14.1544711876       17.7135985631
  C        -2.8011415454       13.2889475482       15.3417390313
  C        -3.5306989414       13.6783309435       19.0880268491
  H        -2.1796394481       14.6897296744       17.7441132448
  H        -3.9308565673       14.8743914056       17.4879263618
  H        -3.1096163118       14.1972447977       15.0103873536
  H        -1.6996139235       13.2077015840       15.1214423234
  H        -3.3379886713       12.6359290697       14.7194803388
  C        -2.3418553381       13.4731310948       20.0159416594
  H        -4.2805457341       12.9107950621       19.3126824564
  H        -4.0872107685       14.5167085031       19.5169350619
  C        -2.7177557915       13.4637356287       21.5140038280
  H        -1.7458684875       12.6203581618       19.7772564290
  H        -1.5992630149       14.1410378331       19.7673303275
  C        -1.7449771638       12.7865252676       22.4915621381
  H        -3.6840140778       13.0180206302       21.5619635783
  H        -2.8912336261       14.5552539038       21.7522520607
  C        -0.4991068048       13.5867399066       22.7630299474
  H        -2.0681884036       12.5953051465       23.5119745255
  H        -1.4642753741       11.9015273191       21.9783907093
  C         0.7422490179       12.8203715129       23.4626921336
  H        -0.0861205836       14.0105384666       21.8163765292
  H        -0.8168774191       14.3778579595       23.4441429688
  C         1.1129598349       11.5288891448       22.7122572009
  C         0.4072327090       12.0550436614       24.7162219740
  C         1.9372819993       13.7356455818       23.5894316991
  C         0.8197314715       10.3966036356       23.5079886618
  C         1.5918483915       11.1166639312       21.5115690227
  C         0.3709227809       10.7052359161       24.7589181434
  C         0.0476954366       12.7381976818       25.8685055643
  H         2.1585357876       14.3312558811       22.6654487990
  H         1.6667628929       14.4687779798       24.2272092873
  C         3.2051652094       13.1266927773       24.0944041634
  S         1.0873679024        8.8588649210       22.7607123651
  C         1.7189594742        9.7798705285       21.3612235698
  H         1.9132176603       11.8151095688       20.7742947270
  C         0.0211740589       10.0358223390       25.8981220171
  H         0.1395217942       13.8039046366       25.8100620171
  C        -0.3174738986       12.0832952593       27.0265363628
  H         3.4883486873       12.1696560775       23.7325350810
  H         2.9714236655       13.0369016608       25.1852083483
  C         4.3757850487       14.1082890338       24.0411848828
  C         2.1749503126        9.1270314451       20.1302310049
  C        -0.3387010898       10.7669517811       27.0734017351
  H        -0.0413590189        8.9639483096       25.9669204523
  C        -0.7079922560       12.4849908206       28.3155717521
  H         4.9570337244       13.9078474382       24.8878029004
  H         3.8716249188       14.9219627073       24.5449057718
  C         5.1127495520       14.2191743577       22.6350522093
  C         2.0749884454        7.7939764989       19.7726225350
  C         2.8528541352       10.0175027412       19.1277583977
  C        -0.7878496721       10.0465649720       28.3402413394
  C        -0.9802365790       11.3924696649       29.0764413054
  S        -1.0715735693       14.0495620089       29.0317241231
  H         5.8927275479       14.9066253465       22.9460692334
  H         4.4747231535       14.7491689683       21.9083422414
  C         5.7028518618       12.8931996237       22.0880832488
  N         1.8491090079        6.9302273389       20.7927728813
  C         2.4594671276        7.2830181388       18.5520096960
  C         3.1682484281        9.5071621707       17.8619496953
  H         3.0133445139       11.0287881137       19.3567308224
  C         0.4590768321        9.2826571864       28.9398604168
  C        -2.1230842111        9.2672602031       28.1114469467
  C        -1.2861464965       11.8540905062       30.4050413554
  C        -1.3501155872       13.2044858981       30.5707276984
  H         6.2049585080       12.3206481340       22.9036086884
  H         4.8608025530       12.3054212526       21.8893579653
  C         6.6918643041       13.1304906628       20.9460872141
  S         1.7011078620        5.4188322489       20.0337136802
  N         2.2892438400        5.8823077303       18.5568025073
  C         3.0177743531        8.0342886466       17.5458573107
  H         3.5178762404       10.1788714770       17.1309280491
  H         0.8739793530        8.5264065084       28.2672397425
  H         0.1667290436        8.6787760207       29.7811730339
  C         1.5316014704       10.1920183176       29.5169435960
  H        -1.9535156622        8.5043510331       27.3976113614
  H        -2.3630175731        8.7274070255       28.9731947510
  C        -3.4041389252       10.0182591397       27.7421843070
  H        -1.3882383864       11.1047663932       31.1246849111
  C        -1.7061300233       13.9625451943       31.8413671349
  H         7.1927811203       12.1093240846       20.7711562782
  H         7.4751520116       13.8663118677       21.1690275393
  C         5.9937997284       13.5377350182       19.6751359781
  C         3.2460135566        7.5201411336       16.2663394350
  H         1.7578191543       10.9424877551       28.6504456200
  H         1.1351712958       10.8292505662       30.3341109536
  C         2.8569601391        9.5819460911       29.9633184192
  H        -3.0975160152       10.7791107705       27.0924030310
  H        -3.8935062574       10.5243586302       28.5917638026
  C        -4.3917577651        9.1013041492       26.9072752267
  C        -1.6492401596       15.3505096345       31.9941854892
  C        -1.9501415312       13.1761802211       33.0601673331
  H         5.1684769194       12.9592391337       19.3282093596
  H         5.8886274726       14.6000820356       19.6812447971
  C         6.9206094184       13.4851415467       18.4494244658
  H         3.2381629199        6.3853120998       16.0940003229
  C         3.5464440873        8.0131715089       15.0071422835
  H         3.3096210462        9.0322168659       29.1533487724
  H         2.6620605471        8.7433510365       30.6157769755
  C         3.8009077288       10.5225768025       30.7317149650
  H        -3.9066856185        8.4044619455       26.2783873180
  H        -5.0081221784        8.4748550625       27.5496394340
  C        -5.2091642617        9.9473908912       25.9042324373
  N        -1.4185778451       16.3214187091       30.9609606641
  C        -2.0488428351       15.9648877361       33.1748632261
  C        -2.3624468975       13.8076259546       34.2607677543
  H        -1.7711862857       12.1283364388       33.0714611491
  H         7.4592941820       12.5635200857       18.3681295472
  H         6.3912848300       13.5691175150       17.5690928769
  H         7.8277124337       14.0577584374       18.6728690439
  S         3.7838480980        9.6847467899       14.5324268676
  C         3.6778745444        7.0354248737       13.8321093316
  H         3.8432703114       11.4582670305       30.2904790761
  H         3.1865590659       10.6462146130       31.6909218108
  C         5.2153651112        9.9642049443       30.9452949263
  H        -5.1788054362        9.4692169386       24.9389776354
  H        -4.7975045019       10.9632185885       25.7958353214
  C        -6.6793980864       10.1135351207       26.2618242199
  S        -1.4107866042       17.7634339594       31.6597451829
  N        -1.8386884167       17.3088725750       33.2019021980
  C        -2.3972532420       15.2665453781       34.3296279022
  H        -2.6512231372       13.2201325428       35.0703405492
  C         4.1363212734        9.1139997595       12.9499467635
  N         4.0491172234        7.7867616842       12.7694000314
  O         3.8547871170        5.8452348963       13.9639973667
  H         5.7434403085       10.5472117673       31.7683710261
  H         5.7466088550       10.3104083920       30.0552567667
  C         5.3213440910        8.4499935751       31.3332225777
  H        -7.2279469510        9.2846207013       26.5982834306
  H        -6.6797282994       10.7787774005       27.1171736522
  C        -7.4399297817       10.8848899983       25.1841450720
  C        -2.6524122829       16.0055709236       35.5562670842
  S         4.5293174994       10.1678244712       11.5364582159
  C         4.1899369787        7.1989222751       11.3918336327
  H         5.9698700421        8.2593973203       32.1417144942
  H         4.3804988208        8.1780261871       31.7891940552
  C         5.6339891684        7.4911270400       30.1922432371
  H        -6.6525472901       11.2149631430       24.3749544665
  H        -7.6548620183       11.8412285567       25.7243783204
  C        -8.6817602278       10.1345778439       24.6318817274
  H        -2.0391519303       16.7647264791       35.5875722917
  C        -3.2828995073       15.7017761429       36.7229618105
  H         4.8953000478        7.7124596314       10.6213984257
  H         4.4374115710        6.1502900023       11.4111860279
  C         2.8114777912        7.1936219339       10.7630463399
  H         6.5289446969        7.8506999487       29.5408961180
  H         4.7889026356        7.4258760062       29.6028596069
  C         5.9373370130        6.0785617642       30.7497635712
  H        -9.0004650315       10.6809148282       23.7895178756
  H        -8.4041832325        9.1415960312       24.2333715037
  C        -9.7259007547        9.9271800703       25.7429059208
  S        -4.0601861328       14.2407517685       37.0849725132
  C        -3.2123512036       16.7367950499       37.8316493155
  H         2.5575822699        8.1945581341       10.3438813323
  H         2.7329448263        6.3481999372       10.0787010078
  H         1.9018188411        7.0241148313       11.4350145218
  H         5.3548553664        5.7449396488       31.6296861612
  H         6.9557834208        6.0164130058       31.1397040961
  H         5.9613418674        5.3419189869       29.9044845733
  H        -9.5670601245        9.0184670547       26.2997826701
  H       -10.6698302077        9.8733145138       25.2661418735
  H        -9.7911202502       10.9079624356       26.2934708288
  C        -4.3453613896       14.8811120223       38.6699583264
  N        -3.9415945184       16.1341465012       38.8029261205
  O        -2.7225583853       17.8876857595       37.6573837608
  S        -5.1190463934       14.0576321281       40.0693518909
  C        -4.1509187225       16.7884098988       40.1447911285
  H        -4.0203940045       17.8289485650       40.0277053480
  H        -5.1267629255       16.5575435257       40.4923467968
  C        -3.1198576655       16.2460310062       41.0916433458
  H        -2.8058728212       15.2262441928       40.8932061469
  H        -2.2194023840       16.8938326406       41.1330508160
  H        -3.4641234059       16.3740741113       42.0957129091
