352
 i =    26400, time =    26400.000, E =        25.2681609478
  H        11.8721566938        7.3937927194       32.2309515149
  C        11.8391384642        6.2928169891       32.3016242368
  H        12.8368972199        5.8680782430       31.9910907929
  C        10.7322861504        6.0207736599       31.3292671591
  C        11.4107736406        5.9309442541       33.6889334993
  C        11.2252650930        6.0048111922       29.8845368023
  H        10.1107665044        5.1711537594       31.7045249513
  H        10.1375595558        6.8939098673       31.3106490870
  H        10.3864672919        6.0418741737       33.9669480226
  H        11.6613623745        4.8570424339       33.8391585929
  H        11.9194720831        6.4836942603       34.4762882825
  C        10.1312373899        6.1711384802       28.8678864774
  H        11.6383152266        5.0525560189       29.7001258876
  H        11.9387111996        6.7750551412       29.7735124208
  C        10.5319321167        6.1874014855       27.3653241143
  H         9.3740828190        5.4323109471       29.0290584142
  H         9.6091056234        7.1277481048       28.9102605121
  C         9.5840882305        5.3997319328       26.3524705073
  H        11.5518031999        5.7065760129       27.4165304120
  H        10.7170133234        7.1779647702       26.9715281639
  C         8.3304479915        6.2129599719       25.9819925483
  H        10.0173224481        5.0942416045       25.3819301983
  H         9.1904259439        4.5360499386       26.8338809169
  C         7.0957490499        5.3999824117       25.4533264703
  H         8.0176732852        6.8509172464       26.7935067422
  H         8.5846004872        7.0067742558       25.2738651988
  C         6.8992355427        4.0570280111       26.1705864272
  C         7.5580888149        4.6633212418       24.2035848434
  C         5.8946561813        6.3720867031       25.3463264806
  C         7.1225486450        2.9453525883       25.3389322896
  C         6.4753423299        3.7645896774       27.4356199441
  C         7.5664419577        3.3202651592       24.1262168890
  C         8.1079640718        5.3472046782       23.1249835838
  H         6.1529138953        7.3060394322       24.8942517665
  H         5.6213825535        6.8592579371       26.2350567506
  C         4.6240074444        5.7837795910       24.6870552276
  S         7.0680561933        1.4907529523       26.2243187030
  C         6.4577513520        2.4057531124       27.6516034671
  H         6.3595333347        4.6217893366       28.1261155743
  C         8.1404310808        2.7182488964       23.0714848653
  H         8.0353221830        6.3987122781       23.0749797746
  C         8.5820196817        4.7731621635       22.0275087017
  H         4.8036595662        5.4300673150       23.6237149145
  H         4.4364446688        4.8122742583       25.1170999947
  C         3.3257365042        6.6983054600       24.8214455370
  C         5.9594338888        1.6953044837       28.8570260626
  C         8.6328082898        3.4142295346       21.9173059179
  H         8.2247292075        1.6930704950       23.0308552363
  C         9.0400232166        5.1233580336       20.7909969430
  H         2.5234926466        6.3524383909       24.1623624353
  H         3.5036202220        7.6307651077       24.4809688279
  C         2.7234726002        6.8243924916       26.2346864315
  C         5.8397574329        0.3129710386       29.0539677778
  C         5.7820622841        2.5382769422       30.0940507135
  C         9.1631008229        2.7269432237       20.6710253753
  C         9.3767929461        4.0613615865       19.9559155257
  S         9.1803351279        6.6684987746       20.0381277658
  H         1.9608663989        7.6445721186       26.2036477136
  H         3.3951856086        7.3232635663       26.9307425336
  C         2.0680989292        5.4776674122       26.7038667408
  N         6.2226250949       -0.6586780567       28.0972766895
  C         5.5931913397       -0.2235526665       30.2903076892
  C         5.5575116246        1.9789367145       31.3553713565
  H         6.0586692058        3.5625909554       30.0183318858
  C         8.0239784109        1.9256480001       20.0478979107
  C        10.4275367268        1.8618006877       20.7353826809
  C         9.7909086482        4.5467921681       18.7319724721
  C         9.7108370813        5.9164393210       18.5948515178
  H         1.1853584470        5.3648728869       26.0378126386
  H         2.6570696184        4.5674456193       26.5153889691
  C         1.6831016258        5.5802020406       28.1498520272
  S         6.1509611581       -2.1311816251       28.7682555975
  N         5.5899389409       -1.6282316877       30.2096595704
  C         5.4540778251        0.5107603221       31.4768352120
  H         5.3905697999        2.6001667714       32.2452786826
  H         7.6206439257        1.1755121270       20.7286734458
  H         8.3850893098        1.4758019252       19.0861271814
  C         6.8505129793        2.7042605219       19.4034710676
  H        10.4285644747        1.1374728887       19.8882119820
  H        10.4053916861        1.2582047400       21.6668214659
  C        11.7680539782        2.6945447527       20.8801323626
  H         9.9883250005        3.8282803571       17.9463245190
  C         9.9832462651        6.6965572579       17.3462745124
  H         1.0716972490        4.7859488389       28.5445641657
  H         1.1605073612        6.5135725966       28.3289393474
  C         2.9993344032        5.4793148238       28.9167817560
  C         5.1291542867       -0.1311695899       32.7116333461
  H         7.1895751240        3.3175974612       18.5948931714
  H         6.4284729235        3.4352555485       20.0676558161
  C         5.6522971548        1.7503699980       18.9732673556
  H        11.6634327986        3.4574053312       21.6199415963
  H        12.0028276079        3.1701749180       19.9480107249
  C        12.9223350908        1.8220717721       21.2193096583
  C        10.0116060374        8.0941009036       17.2180413920
  C        10.2611810121        5.9678449969       16.1074777099
  H         3.3124550399        4.4644731586       28.9143898466
  H         3.8790288218        6.0241339344       28.6227579615
  C         2.7100000158        5.7603491050       30.4015012556
  H         5.1816471463       -1.1819140006       32.4574132019
  C         4.6625578904        0.2240924578       33.9327224759
  H         5.2254576111        1.2294275092       19.8455070857
  H         6.1597186941        1.0197353015       18.2807094788
  C         4.6033570065        2.5637572339       18.2333067863
  H        12.8482336329        1.2798133182       22.1912175619
  H        13.0106000493        1.0547141600       20.4413822715
  C        14.2169049655        2.5627720102       21.2596316053
  N         9.7890854843        9.0219270472       18.2671280197
  C        10.2626165471        8.6996975497       15.9776792340
  C        10.4960814779        6.5298382985       14.8966377159
  H        10.2338603594        4.9351451068       16.1961819641
  H         2.2633285556        6.6939394899       30.7457749694
  H         2.1750273308        4.9076550643       30.7776238261
  H         3.6522662951        5.8379517402       30.9038099379
  S         4.3206114514        1.7699079994       34.4720234284
  C         4.6433946291       -0.8261155945       34.9490749452
  H         4.4863026038        3.5801921939       18.6519585307
  H         4.9315311643        2.6636679704       17.1450619552
  C         3.2598272790        1.7811491487       18.1656393860
  H        14.2777598410        3.2434644272       20.4247770983
  H        15.0826778836        1.9429688571       21.0526084318
  C        14.5798600735        3.2619784394       22.6169371632
  S         9.9910874059       10.4860198662       17.6764611437
  N        10.3232387150       10.0989783506       16.1513530687
  C        10.5592122551        8.0081547030       14.7801634182
  H        10.6117460711        5.9302412648       14.0707886132
  C         4.0671314977        1.0231914069       36.0398902770
  N         4.2895104184       -0.2733167099       36.0974083340
  O         5.0617043075       -1.9846173083       34.7924598532
  H         2.4277587149        2.4565827888       17.9442405391
  H         3.0086619611        1.3281024937       19.1549564871
  C         3.2214035995        0.5718021512       17.2271803458
  H        15.3460388174        3.9950770103       22.4753087918
  H        13.7204568024        3.7445147374       23.0476056494
  C        15.1873037910        2.1748319292       23.5373990052
  C        10.7553773698        8.6448678216       13.5356966140
  S         3.6996288989        1.8300719515       37.5347481510
  C         4.3709004688       -1.0544420127       37.3392308969
  H         3.3975529794        0.9525859133       16.2572705266
  H         3.9878792595       -0.1615069006       17.3963829416
  C         1.8833018777       -0.1126420396       17.3503344233
  H        15.2079953663        1.1751680211       23.1080265743
  H        14.6156878293        2.3307979608       24.3948645337
  C        16.5878810779        2.4923540702       23.9887059425
  H        10.5679436387        9.6979121688       13.6330860288
  C        11.1566143576        8.2072687190       12.2932645113
  H         3.8091384070       -0.7300033946       38.1715804183
  H         4.0665452173       -2.0833269112       37.2131415587
  C         5.7356123432       -0.9680814138       37.8879080699
  H         1.7292420139       -0.6404484417       16.4264167830
  H         1.1107116909        0.6028040831       17.5717443513
  C         1.7948706979       -1.1192768990       18.4775965958
  H        16.6954881609        3.4740274243       24.3644001886
  H        17.0054461400        1.8751184505       24.7783641120
  C        17.5700769840        2.2267801411       22.7410056765
  S        11.5734236381        6.5729923073       11.8274621327
  C        11.4203885571        9.2111035069       11.2306259585
  H         5.7327509371       -1.0779071961       38.9540019379
  H         6.5269724827       -1.5957903402       37.4501311799
  H         6.0794142126        0.0408246606       37.6418780371
  H         1.1056657652       -0.9548472214       19.2818640585
  H         2.7732576852       -1.1752104573       18.9415307201
  H         1.6076208861       -2.1087546350       18.0470291115
  H        18.5312937311        2.7188609069       22.7559415880
  H        17.1412579724        2.6281485078       21.8190424673
  H        17.6554919553        1.1039784026       22.6342363244
  C        11.9478785053        7.2884316280       10.1974352422
  N        11.8545896555        8.6427367247       10.1286069027
  O        11.3294130894       10.4547688954       11.3758101527
  S        12.6418828096        6.3874621886        8.7874500209
  C        12.0694055166        9.3320377029        8.8402940021
  H        12.4819769468       10.3400298858        9.0173760826
  H        12.8005184220        8.9714728036        8.1578684463
  C        10.7254241767        9.3628053368        8.0468119853
  H        10.5516343195        8.3223909230        7.7086356212
  H         9.8434482780        9.5842976309        8.6342323018
  H        10.7451855570       10.0990911732        7.2810353924
  H        -3.6054801747       14.6562228690       16.7566145350
  C        -3.0470083424       13.7332013777       16.6849969090
  H        -3.8361630284       13.0317728056       17.0255534346
  C        -1.8565796967       14.0281178971       17.6031257611
  C        -2.4624988422       13.4020932920       15.2874616992
  C        -2.3424959625       14.3953437468       19.0486755060
  H        -1.1153287210       13.3179761279       17.5982844993
  H        -1.4274913182       14.9517868207       17.2141603644
  H        -3.0105369742       13.9706259801       14.5713682330
  H        -1.4569966906       13.7819722744       15.3000198477
  H        -2.4964434289       12.3604514614       14.9823409630
  C        -2.3054860886       13.0921747538       19.9165428169
  H        -3.3021051373       14.9422690972       19.0498064198
  H        -1.5942735818       15.0822419903       19.4118606353
  C        -2.5592560694       13.2575503990       21.4129123727
  H        -3.0210448209       12.4103785235       19.5385853255
  H        -1.4319152348       12.4676330498       19.6657464529
  C        -1.4188196644       12.7058070962       22.4107005216
  H        -3.4632341416       12.7122287904       21.6095320695
  H        -2.8229121067       14.2565651882       21.6225439609
  C        -0.2409127527       13.6759014133       22.4671536338
  H        -1.9351017892       12.6690230208       23.2976102586
  H        -1.1205129432       11.6775334551       22.1237443981
  C         1.0678405934       13.0289874853       23.1343321662
  H         0.0598013192       14.0287973913       21.4847804640
  H        -0.5904477701       14.5086714991       23.0326215651
  C         1.4406756438       11.6981968243       22.4295705617
  C         0.7685724101       12.2855632461       24.4093246824
  C         2.2324889523       14.0313893477       23.0735465653
  C         1.2529806801       10.5222977294       23.1862114785
  C         1.8477549736       11.3393634610       21.1427351541
  C         0.8783394724       10.9110955505       24.4559607194
  C         0.2798567115       12.9620673780       25.5244365313
  H         2.4321222728       14.2875125730       22.0432636618
  H         1.9713652478       14.9048406877       23.6423346593
  C         3.4820924487       13.3984900490       23.6830080372
  S         1.4302822067        8.9799069279       22.3511199928
  C         1.8818813700        9.9721512985       20.9392448064
  H         2.0018320400       12.1609630234       20.3905995230
  C         0.5214927583       10.2850775581       25.6049356649
  H         0.2507519583       14.0261393701       25.6283637546
  C        -0.0904327239       12.3083587384       26.6452012021
  H         3.6125392994       12.4750918739       23.1637324375
  H         3.2133406347       13.0859828827       24.6964681075
  C         4.6275159254       14.3684768801       23.7080583790
  C         2.3767617135        9.3131009384       19.6965089354
  C         0.0601558146       10.9823245899       26.7333337418
  H         0.7269293927        9.2309528434       25.7111326394
  C        -0.4064265878       12.6878363785       27.9185264080
  H         5.3182367842       13.8110408031       24.3159519310
  H         4.5283899513       15.3227830206       24.1608279754
  C         5.2411723600       14.5997155820       22.3033088695
  C         2.5111682893        7.9472788517       19.4786950697
  C         2.6157838986       10.2164144288       18.4986480033
  C        -0.1614754288       10.1959569171       28.0252901689
  C        -0.5161465237       11.5679452291       28.7130180202
  S        -0.8086974773       14.1325420934       28.6499977357
  H         5.9310538008       15.4127499661       22.3763511036
  H         4.5331684747       15.1495476758       21.6469311716
  C         5.8978300978       13.2981966286       21.7652741177
  N         2.1567648547        6.8576086267       20.3864423170
  C         2.7484191255        7.4837821587       18.1995365046
  C         2.9992012045        9.6691719492       17.2820308216
  H         2.5411526082       11.2844390419       18.5813895175
  C         1.0615862281        9.4995449481       28.6544453578
  C        -1.3792015942        9.1970944979       28.0284504162
  C        -0.8389100510       11.8674896193       30.0333317800
  C        -0.9778981983       13.2219284201       30.1435734312
  H         5.9791059499       12.5998948204       22.5282510225
  H         5.1732345214       12.7548342122       21.1510162430
  C         7.1229221334       13.4442760581       20.9257680695
  S         2.2450211810        5.4348587645       19.5808805129
  N         2.4510309915        6.1237874869       18.1039003766
  C         3.0086537376        8.2213570716       17.0592828011
  H         3.0413625756       10.3204885651       16.5062820943
  H         1.5297030837        8.8460183332       27.9037148669
  H         0.7287052101        8.8671580069       29.4574578858
  C         2.0526498670       10.4610931154       29.2857835237
  H        -1.1624202422        8.3111018673       27.5101021756
  H        -1.5348061749        8.8397298180       28.9930349128
  C        -2.6773899653        9.8756258772       27.6514751954
  H        -0.9290488759       10.9990277309       30.7512712388
  C        -1.3814593624       13.9168022364       31.4316953357
  H         7.4528392420       12.4693682603       20.4958374286
  H         7.9562432968       13.9061267156       21.4280304342
  C         6.6959277566       14.2524372457       19.6124362450
  C         3.1377409851        7.5949427018       15.7615285397
  H         2.2749293175       11.1696806369       28.4325810735
  H         1.6039551065       10.9269467510       30.1617998453
  C         3.3147128195        9.7998399111       29.7088824336
  H        -2.6333987863       10.2243785191       26.6214971512
  H        -2.8855288270       10.8185117812       28.1929847838
  C        -3.8646976765        8.9188570309       27.8542804018
  C        -1.4943474523       15.3083536815       31.5548362450
  C        -1.6883019869       13.1501698686       32.6524030211
  H         5.7144886330       14.5695034114       19.6519454522
  H         7.3502087032       15.1210114720       19.5044921148
  C         6.7934642764       13.3851390799       18.3214074029
  H         2.9139423891        6.5001995589       15.8302477143
  C         3.5489170220        8.0360645325       14.5092543584
  H         4.0454582206        9.6715754622       28.8729557344
  H         2.9967067340        8.8710529595       30.1828762339
  C         3.9068856439       10.5880424512       30.8411422674
  H        -3.9017205548        8.2495665566       27.0052067452
  H        -3.8590356767        8.2133652581       28.7069307360
  C        -5.2291143656        9.5358097246       27.7381116645
  N        -1.2756907787       16.2010230854       30.5578075423
  C        -1.6992010635       15.9060340054       32.7531744517
  C        -1.9565769868       13.7534002303       33.8855246782
  H        -1.5548625573       12.0289281434       32.5476878052
  H         7.7494293326       12.8577482752       18.1724918120
  H         5.9907854147       12.6251217606       18.2881802095
  H         6.6100232819       14.0353986191       17.4568684730
  S         3.9972290202        9.6147813824       14.0972014525
  C         3.4181944128        7.0820690248       13.4502662120
  H         3.8778220645       11.6336880023       30.4093838863
  H         3.1605642722       10.5559663410       31.6582287221
  C         5.2975214885       10.0958367868       31.1460076298
  H        -5.0827066446       10.5388614565       28.1711741241
  H        -6.0312096617        8.9401569399       28.2797028762
  C        -5.6265205090        9.6471694692       26.2741077596
  S        -1.3568212107       17.7406149539       31.1222949219
  N        -1.7568852100       17.2771347023       32.5993999758
  C        -2.0776105667       15.2016494861       33.9369474259
  H        -2.1599184738       13.1248675357       34.7033280796
  C         4.0467500962        8.9634215877       12.4676410277
  N         3.6760196559        7.6816341309       12.3154213011
  O         3.1351579451        5.9043544603       13.6283139673
  H         5.7289069890       10.7493955270       31.8162413343
  H         5.8028480521       10.1170959937       30.1973833495
  C         5.4533382252        8.6261987981       31.6474177229
  H        -4.8007404489       10.0053285931       25.7042056841
  H        -5.7451966982        8.6572395275       25.9046228098
  C        -6.8479840233       10.6183060382       25.9485376969
  C        -2.4223328501       15.9515426832       35.1367598402
  S         4.5017640169        9.7942681855       11.0059036767
  C         3.5762010660        6.9585520746       10.9531445858
  H         4.7348646832        8.4764411554       32.4713863592
  H         5.0800701067        7.9194462893       30.8049275312
  C         6.8838911723        8.2028605431       31.9035768836
  H        -6.9746854081       10.6421667095       24.8179021780
  H        -6.6032785914       11.6120063792       26.2649350654
  C        -8.1825984227       10.3329116015       26.6591039265
  H        -2.4730784432       17.0062651424       34.9228656911
  C        -2.6444139658       15.6580896320       36.4315074994
  H         4.3037734460        7.2008870175       10.2355021633
  H         3.7671897453        5.9073072834       11.0138625237
  C         2.1939424475        7.0942129322       10.3015015500
  H         7.2142702525        8.5918542755       32.8949116070
  H         7.6390730900        8.5716313092       31.1375149508
  C         6.9447469653        6.6827091310       31.9413722626
  H        -7.9333466757        9.8576598382       27.6036250023
  H        -8.7112112171       11.2238277407       26.9235717190
  C        -9.2259190897        9.6043891895       25.8678365587
  S        -2.8902933294       14.1011783843       37.0393824052
  C        -2.7743762061       16.8147634337       37.3702570433
  H         1.4241540615        7.1240329618       11.0378251380
  H         2.1919987612        7.9230980175        9.6357425680
  H         1.9909471859        6.2448623994        9.6778273959
  H         6.7391542501        6.2170618152       30.9982907830
  H         6.3527689433        6.0758005167       32.5751206754
  H         7.9584701352        6.4202596418       32.1548701502
  H        -9.3022574892       10.1218570573       24.8541262402
  H       -10.1786216049        9.4668245439       26.3141290679
  H        -8.7940644776        8.6725227601       25.6119935266
  C        -3.5485258683       14.9080245036       38.4761027531
  N        -3.4235787064       16.2860860303       38.4769774203
  O        -2.7323200622       18.0886591598       37.1434773453
  S        -4.2946881252       14.1159038961       39.8226071020
  C        -3.8099208906       17.0876634408       39.5636708535
  H        -4.0412385885       18.1309621896       39.2126971170
  H        -4.7907601543       16.8689096783       40.0902400175
  C        -2.6985118197       17.1280900017       40.6430268193
  H        -2.8962322982       18.0027071233       41.2602105252
  H        -2.6512884477       16.2323907053       41.3008955419
  H        -1.7351812457       17.2209754027       40.1938360992
