352
 i =      600, time =      600.000, E =        53.5278331685
  H        11.8657572882        6.9555262727       32.4125451125
  C        11.5100508976        5.9626768583       32.5146209131
  H        12.3044499752        5.3020197619       32.3238620565
  C        10.5044345401        5.5025675718       31.4922862792
  C        10.9141413486        5.7175279116       33.9554035829
  C        10.9670644595        6.1512725025       30.1209960921
  H        10.4090990540        4.4641420235       31.4328192137
  H         9.5359300289        5.7236873416       31.7034860370
  H         9.8399288098        5.3587827537       33.8305048649
  H        11.4586622337        4.7367858087       34.3608297099
  H        10.9947710818        6.6889369515       34.5730988885
  C         9.8395523470        5.9722208984       29.0434910535
  H        12.0049487729        5.6704276898       29.8816353195
  H        11.3041593330        7.2448187393       30.2044961971
  C        10.2147680423        5.8380550506       27.6129294638
  H         9.2494250721        5.1731268497       29.2628451918
  H         9.1676980936        6.7500424091       29.2823913444
  C         9.2070114579        5.0772802434       26.7830451687
  H        11.2439644887        5.2776243664       27.4223277937
  H        10.4578175843        6.8512690785       27.1207527415
  C         8.0023613212        5.9802966884       26.3492049489
  H         9.6389790696        4.8133767487       25.7371472884
  H         8.9145973984        4.1961329336       27.3013924528
  C         6.9916890209        5.2607506206       25.3869361136
  H         7.5185391516        6.3435627294       27.3345808014
  H         8.3370287778        6.8907779785       25.6712492415
  C         6.6487265872        3.8719537478       26.1712946247
  C         7.5152133800        4.5449594626       24.1793411751
  C         5.7428903073        6.0792691806       25.1173718710
  C         6.9499702628        2.8261492753       25.2972155897
  C         6.1341629117        3.4698426022       27.4441094842
  C         7.5590819183        3.1684316665       24.1503112402
  C         8.0479591401        5.2730357549       23.1318961697
  H         6.1058212525        6.9038286680       24.4421125202
  H         5.3702028047        6.6540079281       25.9831249628
  C         4.5269530027        5.4037692692       24.5514334159
  S         6.7185490530        1.3012964402       26.1630392565
  C         6.1932968167        2.0558363419       27.6164061014
  H         5.8374637359        4.2030239144       28.2705632744
  C         8.0079051963        2.4970297099       23.0303685111
  H         8.1221986759        6.3340250801       23.3397660698
  C         8.5405176874        4.5963022877       22.0564173576
  H         4.7498487135        5.0285833731       23.5024109191
  H         4.1819908963        4.6012826774       25.1953038748
  C         3.3234616389        6.3260565287       24.6554042549
  C         5.8351196908        1.3988011934       28.9093859110
  C         8.5164282936        3.2006355225       21.9396710138
  H         7.9321755966        1.4588028805       22.8503979886
  C         9.0779510814        4.9058607562       20.8449101608
  H         2.6153729209        5.9984013611       23.7998481971
  H         3.6574946496        7.3033365831       24.2705142525
  C         2.6540948993        6.5857529025       26.0055151216
  C         5.8846692185        0.0671087037       29.2045128721
  C         5.4855770625        2.2926221346       30.0695353988
  C         8.9043509111        2.5280166975       20.6442169422
  C         9.2779778909        3.8194172243       20.0112291230
  S         9.3108824885        6.4883482469       20.0119203383
  H         1.9945370674        7.3116599623       25.8626277558
  H         3.2634869650        6.9846266763       26.7696555499
  C         1.9880338664        5.2705428233       26.5278948132
  N         6.2612683218       -1.0044805406       28.3090304142
  C         5.6787930354       -0.4447080087       30.4772545013
  C         5.2428187567        1.8157999278       31.3533534461
  H         5.2884585391        3.3897056443       29.9341676714
  C         7.7801091398        1.7497663709       19.9745467900
  C        10.1934521621        1.6816747828       20.9621430705
  C         9.7972378687        4.2774977765       18.7653027444
  C         9.7165314963        5.7013159244       18.5791513131
  H         1.3673269973        4.9240317362       25.8614997219
  H         2.7019671722        4.5641045927       26.6131835212
  C         1.1817057191        5.5095133425       27.7505354343
  S         6.3993181465       -2.4339210937       29.1570265680
  N         5.8690856488       -1.8367656152       30.5603817269
  C         5.2992903839        0.3255146446       31.6226609100
  H         4.9541422141        2.5108143207       32.1616251168
  H         7.1574614225        1.2312356463       20.6488934215
  H         8.1842622618        1.0016925982       19.3632965773
  C         6.9596517556        2.4573982267       18.9713638416
  H        10.5473853540        1.1927362095       20.0356757437
  H         9.8785298129        0.8481116724       21.5364190918
  C        11.4365169011        2.4516744348       21.5617824388
  H        10.0786471940        3.6327085702       18.0187847438
  C        10.0242918996        6.4256539721       17.3603207478
  H         0.4158751003        4.7832764111       27.9187365738
  H         0.5809834742        6.4601648117       27.6016460740
  C         2.1497610480        5.5913004846       28.9888766386
  C         5.1818654908       -0.2816070648       32.9133993395
  H         7.5302582190        2.9094257236       18.1621754040
  H         6.6252423507        3.3549122537       19.4697727651
  C         5.7476862071        1.6422117808       18.4986802017
  H        11.0022393362        2.9955375431       22.4992571892
  H        11.8818605803        3.4612247678       21.0978933388
  C        12.7686585956        1.7205773123       21.7681600978
  C        10.0049254760        7.7755078727       17.1206802111
  C        10.4039162738        5.6556833361       16.1612963782
  H         3.0057924480        4.8870863787       28.7490021486
  H         2.6253830358        6.5441799490       28.9260066482
  C         1.4273566618        5.3672975404       30.1917746880
  H         5.3382297195       -1.3820074892       32.8154402994
  C         4.7896207732        0.2492123407       34.1779340228
  H         5.3382789070        1.3118828511       19.3412750909
  H         6.1137885973        0.8583759060       18.0762056928
  C         4.7590403150        2.2783500285       17.5706999633
  H        12.5809467716        0.6912242343       22.2373104299
  H        13.1476709746        1.4407444524       20.7419544416
  C        13.7642526803        2.5962052612       22.4612820894
  N         9.8369955366        8.7560574677       18.2206787926
  C        10.4670248399        8.3071656602       15.9901064129
  C        10.7275683772        6.1928096342       14.9291820023
  H        10.5117152115        4.5868642492       16.2163195115
  H         2.1496281832        5.4010442715       30.9986249376
  H         0.5195854629        6.0180650742       30.3190262566
  H         0.8719923603        4.3781490608       30.2975393186
  S         4.3511811924        1.8413890230       34.5451457290
  C         4.5965409715       -0.7560189561       35.2947364208
  H         4.6250909300        3.3819319922       17.5995484973
  H         5.0346361469        2.0665252917       16.5531873237
  C         3.3571872201        1.8428119995       17.8548226600
  H        13.4098117346        2.9609773563       23.3598764886
  H        14.0470179005        3.3542901833       21.8930102250
  C        15.0814377191        1.8050689731       22.7462988686
  S        10.2324569922       10.1830445116       17.7770635264
  N        10.5398731477        9.8082539419       16.1964417874
  C        10.8044132414        7.6480227939       14.8481880090
  H        10.9348064956        5.3118090146       14.1450135280
  C         4.0653784963        1.2600475472       36.2053297258
  N         4.1129560207       -0.0945866820       36.2993264219
  O         4.9124345719       -1.9225489402       35.1296473925
  H         2.6508803529        2.4348785217       17.3442035145
  H         3.1824270126        1.7658496373       18.8783954970
  C         3.2205165792        0.2709746118       17.3513133390
  H        14.7751981310        0.9880850284       23.3617305545
  H        15.3991590924        1.3435516281       21.8668809176
  C        16.2464113778        2.5764960368       23.4451823181
  C        11.0659018436        8.3335132238       13.6189189197
  S         3.6643427819        2.1848180029       37.6024319471
  C         4.1054209684       -0.9051795396       37.4694761865
  H         3.0554614937        0.1620451148       16.3211203409
  H         4.0279808666       -0.3319880986       17.6425131616
  C         2.2227161480       -0.6947660162       18.0215800777
  H        16.2185066126        2.5577133847       24.4974188699
  H        16.4698565874        3.5905232781       23.0929757236
  C        17.6410302398        1.7913648054       23.3283176909
  H        10.6029862715        9.3533155677       13.6084707397
  C        11.4863603446        7.9913857561       12.3987315333
  H         3.6211662737       -0.5017085236       38.3163509455
  H         3.6602591081       -1.9337014132       37.4417225406
  C         5.5794879249       -0.9625832635       38.1143811319
  H         1.3445858851       -0.1864930010       18.4199671606
  H         2.5619074017       -1.3281444444       18.8741438254
  C         1.7867460104       -1.7370812401       16.9725438311
  H        18.1401970098        2.2723049575       23.9922619262
  H        17.4689275388        0.8429367021       23.6198831218
  C        18.2477473975        1.7634796615       21.9355576202
  S        12.1203252139        6.4090688865       11.9737042534
  C        11.5840799548        9.0177887009       11.3267357680
  H         5.8111941834       -1.7423782666       38.7634534021
  H         6.2926396359       -0.9298555089       37.3193394545
  H         5.6307777714       -0.0299181673       38.7894050213
  H         1.3075624966       -2.5510867647       17.3643344798
  H         2.5261817460       -2.0950890947       16.2681917241
  H         0.9162908462       -1.3001254098       16.4445261101
  H        18.4963021528        0.7287073778       21.6527433429
  H        19.1248017246        2.2656969261       21.9290184996
  H        17.6456132829        2.0361802810       21.1720693407
  C        12.3621112796        7.1272342612       10.2821609917
  N        12.1558214714        8.4601586302       10.2528983554
  O        11.4830558732       10.2237058849       11.5663911578
  S        13.2609748560        6.2166593919        9.0457540470
  C        12.2798054589        9.1511853197        9.0086876054
  H        12.2385568880       10.2867680276        9.1576130719
  H        13.2670940295        8.9150744583        8.3571221461
  C        11.0381812906        9.0348042232        8.1474135238
  H        10.2658380412        8.6405414240        8.7428477263
  H        10.6743972421        9.8542483856        7.8309821885
  H        11.2985147378        8.4563195297        7.3099056916
  H        -3.9339198871       14.7887356049       16.0764099748
  C        -3.3530078108       13.9628134535       16.4164263437
  H        -3.9407158733       13.2628225968       16.8227578305
  C        -2.4831182493       14.4628838513       17.4885996858
  C        -2.5131600160       13.3542499014       15.2722893025
  C        -2.5870048816       13.7281462904       18.8527289771
  H        -1.5127933333       14.4905728481       17.1286443043
  H        -2.6804950045       15.3656798595       17.6848765594
  H        -3.0734362232       12.8513888289       14.5450977293
  H        -1.8426148348       14.1027558582       14.8040498800
  H        -1.8356199044       12.5695039871       15.6291057659
  C        -1.5306230001       14.1548388448       19.7973234562
  H        -2.4721909329       12.6433246480       18.8085242923
  H        -3.5351598878       13.8573699820       19.3398283500
  C        -1.9872568441       13.8327628179       21.2702395332
  H        -0.5898984559       13.4568723443       19.6447806079
  H        -1.6148428677       15.3810815908       19.6209445022
  C        -1.0609753706       12.9330559735       22.1153537164
  H        -3.0025472562       13.3217159543       21.1796966003
  H        -2.0815626360       14.9126850261       21.6073878493
  C         0.1642339234       13.8803253789       22.5822304015
  H        -1.4713538088       12.6697729062       23.1817631692
  H        -0.6939969050       12.0739239991       21.5534533517
  C         1.2978841023       13.1966769381       23.2917530046
  H         0.3379337620       14.5135900630       21.7281890431
  H        -0.3086879787       14.5470246476       23.3013480252
  C         1.6323001296       11.7770903603       22.5597414355
  C         0.8368849228       12.3712670737       24.4766250597
  C         2.5758499137       14.0782656998       23.6450161027
  C         1.3849274899       10.6836008888       23.3578198073
  C         2.0279811007       11.3946979688       21.2240179275
  C         0.8839182177       10.9909303770       24.5554078989
  C         0.4046800461       13.0303480277       25.6488345053
  H         2.9442933955       14.5794919148       22.6870761023
  H         2.2032941624       14.7931670916       24.3498754528
  C         3.7705167330       13.2609716810       24.1745059323
  S         1.8227982861        9.1532521701       22.5902705891
  C         2.2823888473       10.0198059573       21.1226364533
  H         2.0289767267       12.0617326051       20.3873188544
  C         0.5000436704       10.3198507696       25.6768809766
  H         0.3230478576       14.1344861041       25.5200048347
  C         0.0646165019       12.3076964765       26.7786911945
  H         3.9669446209       12.3518866971       23.6022694222
  H         3.4450488775       12.8626997134       25.2124161981
  C         5.0490597401       14.0337251862       24.2420836449
  C         2.5744562316        9.3343706189       19.9012569953
  C         0.1680290478       10.9483694363       26.8745109919
  H         0.5274933508        9.3118208152       25.7980575329
  C        -0.4372444899       12.6732632564       28.0123930994
  H         5.9162159868       13.5667404543       24.8496434407
  H         5.0314630173       14.9989799096       24.8415681740
  C         5.6742498246       14.3148966427       22.9534164828
  C         2.6827795201        7.9359976674       19.6870346837
  C         2.7544217754       10.1394705170       18.6531662217
  C        -0.2909157055       10.2152802445       28.1116399982
  C        -0.6686685365       11.5446478463       28.8047822119
  S        -0.7894954482       14.1822970713       28.8498131932
  H         6.5484412704       15.0323868572       23.0877318487
  H         4.9791268302       14.9349564479       22.2616118871
  C         6.0531564699       13.0561416797       22.1277936191
  N         2.4882619345        6.9202834277       20.6978029785
  C         3.0024845805        7.4077200331       18.4781679648
  C         3.1114174364        9.6171173560       17.4493651807
  H         2.8004100703       11.2786933930       18.6196230210
  C         0.8284213740        9.3537803725       28.9957056281
  C        -1.5364030577        9.4216906527       27.7934933055
  C        -1.1172848097       11.9762243570       30.1889847054
  C        -1.1531554741       13.3752095279       30.3517029126
  H         6.6685062944       12.2228186040       22.6156542499
  H         5.1525148820       12.6746914597       21.8097683267
  C         7.0302897593       13.4824623988       21.0378301318
  S         2.4084631326        5.4789862044       19.9228485439
  N         3.0860296889        5.9429127097       18.5084418104
  C         3.2500731449        8.1199072133       17.2951631305
  H         3.3464450764       10.4430549529       16.6760205819
  H         1.0809753569        8.5404008088       28.4132124303
  H         0.2892577258        8.9157613573       29.7957206227
  C         1.9282943472       10.2529027748       29.4359300657
  H        -1.2716136693        8.6249839635       27.0681109102
  H        -1.9782911544        8.7827102654       28.6678340923
  C        -2.7329952233       10.1811932232       27.1591259427
  H        -1.2890118323       11.2023510863       30.9774036695
  C        -1.5583855039       14.1111431178       31.6052736223
  H         7.6041955397       12.6859986195       20.7370018023
  H         7.6391243114       14.4253601810       21.3442866021
  C         6.2521694475       13.9083833002       19.6920493700
  C         3.5018089693        7.4804759819       16.0943089897
  H         2.3531470655       10.7070164434       28.5799875779
  H         1.5946549517       11.0942156502       30.0431066282
  C         2.9011122477        9.3331877747       30.2267135221
  H        -2.4472941936       10.6836361753       26.1775740552
  H        -2.8771352211       11.0325974227       27.8480765875
  C        -4.0054303625        9.3420718173       26.9890164788
  C        -1.5165072668       15.4165793749       31.7943379951
  C        -1.8682899917       13.2443290177       32.7820951803
  H         5.3139393149       13.3963930879       19.5594989259
  H         5.9856029818       14.9273124126       19.8361397612
  C         7.0754381742       13.8648521664       18.4466375213
  H         3.2030445481        6.3656476885       16.1016958907
  C         3.7469865353        7.9049784777       14.7984370308
  H         3.2400429755        8.5936354668       29.5590497977
  H         2.4010428272        8.6650745967       30.9526976320
  C         4.0283803875       10.1657595570       30.7909873435
  H        -3.7297878757        8.5802581694       26.1792330065
  H        -4.1985568714        8.9979139109       28.0292358040
  C        -5.1795059618       10.2524001921       26.7127797567
  N        -1.2284647522       16.4587337662       30.7194851087
  C        -1.8692966026       16.0370075330       32.9310821307
  C        -2.3259107041       13.8418942866       33.9640973021
  H        -1.6591087182       12.1687813908       32.9110365966
  H         6.4528224324       13.8976124071       17.6464914716
  H         7.6366235739       14.8646129581       18.4155301018
  H         7.7422825413       13.0035669132       18.3918250226
  S         3.8930079193        9.6033120568       14.3927089426
  C         3.7435297470        6.9154453372       13.6885102366
  H         4.2499713888       10.9567526619       30.1311117816
  H         3.8881142889       10.6145505288       31.7838588096
  C         5.3612428948        9.4236974167       30.8547832223
  H        -5.0498358132       10.9298939454       25.8666650948
  H        -5.4317047513       10.6986357682       27.6489541174
  C        -6.3263727535        9.4808193087       26.2617759144
  S        -1.2715917400       17.9075397062       31.4237365761
  N        -1.9034858034       17.4790859943       32.8583598170
  C        -2.3521996021       15.2709028743       34.0332435152
  H        -2.2085066826       13.2709841638       34.8934301017
  C         4.2696034529        8.9960224949       12.7760475470
  N         4.0970532935        7.6221472080       12.6371282759
  O         3.6922453373        5.7086072687       13.7757656344
  H         5.9421841086       10.1348118124       31.3166906435
  H         5.6559925207        9.1263547404       29.9884209546
  C         5.3955154422        8.2842797513       31.8200605229
  H        -5.8046528859        8.7996615507       25.4694547913
  H        -6.5815505470        8.6885649454       27.0309338750
  C        -7.5739450048       10.4151475338       25.9044843757
  C        -2.6511388879       16.0089601071       35.2651800494
  S         4.6553702518       10.0358674834       11.4677012914
  C         4.1801956816        7.0022270722       11.3651321083
  H         6.1880207477        8.6723041073       32.5997790273
  H         4.5343246138        8.0420876225       32.2579728808
  C         5.9706444098        6.9486088428       31.0930179215
  H        -7.1924803204       10.8574055986       25.0072631983
  H        -8.0419731825       11.2577304801       26.5739437563
  C        -8.6588673171        9.5160303542       25.2655772133
  H        -2.4470199904       17.0351615936       35.4305970292
  C        -3.3361660119       15.6244261197       36.3573644518
  H         4.8511608280        7.5443798801       10.6800844581
  H         4.4239829461        5.8945607775       11.5357855953
  C         2.7214984146        7.2823223193       10.6741741621
  H         6.9640888784        7.1708254561       30.8872509592
  H         5.4759776921        6.7649150107       30.1538885332
  C         5.8555329250        5.6990494852       31.9069034594
  H        -9.1689249776       10.1849119727       24.3849281196
  H        -8.0958091856        8.7166048749       24.8625773655
  C        -9.5490578722        9.1292452209       26.3210502688
  S        -4.1046075515       14.0599093412       36.5890652386
  C        -3.3821870855       16.5867896281       37.5170656093
  H         2.5230436081        8.2639378080       10.8055632718
  H         2.6991559907        7.1448833314        9.6415434567
  H         1.8336814442        6.7861777241       11.0145567410
  H         6.4336852713        4.9260188901       31.5750757217
  H         4.8570130056        5.4671344372       32.0077185786
  H         6.1430742385        5.8526208686       32.9258596637
  H        -9.2009898727        9.0993200885       27.3847546610
  H        -9.9686597328        8.1670260514       26.0847049480
  H       -10.3343404451        9.9637895835       26.3076171163
  C        -4.5176694384       14.7097305905       38.2222971024
  N        -4.1339662572       16.0063613489       38.4557530093
  O        -2.8770543059       17.6686015550       37.4804888662
  S        -5.4312023005       13.9204223481       39.4731322902
  C        -4.2062720359       16.6858172565       39.7445088599
  H        -4.0761723232       17.8216655218       39.6132737932
  H        -5.2853370442       16.5586996665       40.1791777096
  C        -3.0550138947       16.0665932332       40.5854863597
  H        -3.5544191545       15.3098443849       41.1211246009
  H        -2.3246840570       15.6720568186       39.9567812891
  H        -2.6702310806       16.7625902387       41.4290401422
