352
 i =    25300, time =    25300.000, E =        25.4987009760
  H        11.4355327665        7.6365446701       33.0512364938
  C        11.3127706566        6.6340295435       32.6808102264
  H        12.3094899765        6.2012578612       32.4595850568
  C        10.2794324572        6.5540913238       31.6108526753
  C        10.6452444571        5.7936192277       33.7480940753
  C        10.8806094520        6.0054928876       30.3132488272
  H         9.3257061863        6.0342617615       31.8792487300
  H        10.0019055567        7.5250238850       31.2266926215
  H         9.8002350449        6.1717202490       34.2210548877
  H        10.6408721893        4.7951864327       33.2550100731
  H        11.4056318903        5.8302918051       34.5776920677
  C         9.9777328918        5.8867665102       29.2007249402
  H        11.3158013591        5.0482246662       30.5282304853
  H        11.7167199617        6.5589940875       29.9635171082
  C        10.5808695197        5.9020159568       27.7921191663
  H         9.3704855559        5.0560508493       29.5095578304
  H         9.3834604768        6.8378474416       29.2457037157
  C         9.7097546442        5.1502408206       26.8326467789
  H        11.6184707777        5.5615965283       27.7697778444
  H        10.4196570495        6.9010269456       27.4410378995
  C         8.5656500531        6.0078958096       26.2784307831
  H        10.3365756525        4.8846232217       25.9849889507
  H         9.3746624272        4.2667036551       27.3507383526
  C         7.4025724183        5.3226915471       25.6078736874
  H         8.1375146901        6.5232679066       27.1589430956
  H         8.9985363254        6.8577468735       25.7305722306
  C         7.0193519505        3.9025669000       26.2023076429
  C         7.8394696437        4.6860443230       24.2915657980
  C         6.1093504209        6.2225725744       25.5647136981
  C         7.1297134912        2.8502775522       25.2935350358
  C         6.5438745653        3.5349292739       27.4711875125
  C         7.6742309815        3.3107400738       24.1534488932
  C         8.4461561347        5.3921652138       23.2326398918
  H         6.2799587694        7.2020080404       25.1290895560
  H         5.8868134740        6.4245972864       26.5962576766
  C         4.8951839409        5.5708110068       24.8816898955
  S         6.5392469863        1.3904641036       25.9406799495
  C         6.1949615324        2.1985041409       27.4206205840
  H         6.5272240202        4.2851794416       28.2684186084
  C         7.8953785255        2.7225200463       22.9453489930
  H         8.6178000170        6.4501521112       23.2674171800
  C         8.7539454556        4.7192353533       22.0556901549
  H         5.2821990040        5.1806167684       23.9691191814
  H         4.5170124435        4.6713684742       25.3445984982
  C         3.6599980475        6.4995884590       24.6726988511
  C         5.7792902090        1.4735559237       28.6483439122
  C         8.3693236497        3.4311639043       21.8207651971
  H         7.6969341302        1.7069208760       22.8248630199
  C         9.1120621438        5.0985461026       20.7858802323
  H         3.0861114851        5.9894903466       23.9236131225
  H         3.8246748223        7.4596103131       24.1491659788
  C         2.9118009274        6.7286129570       26.0781625364
  C         5.9206200369        0.0882951530       28.9100394037
  C         5.1927138036        2.2304042666       29.7548476487
  C         8.6642751898        2.7156700735       20.6090716663
  C         8.9947951490        4.0272789090       19.8941046666
  S         9.5065875579        6.6398939441       20.0364583894
  H         2.2103551452        7.6045719571       25.9932941725
  H         3.6422938738        6.9656248626       26.8196452283
  C         2.1228229914        5.5503480947       26.5905346429
  N         6.4785408046       -0.8157778489       28.0394338077
  C         5.6620471835       -0.4320406583       30.1142960391
  C         4.9291813858        1.6580787984       30.9944461356
  H         5.1159265669        3.2639717895       29.5696486649
  C         7.3942550462        2.0162336380       20.0575841310
  C         9.9006906179        1.7839993240       20.8327862617
  C         9.1942251393        4.4769232121       18.5769198422
  C         9.5325301043        5.7849210672       18.4963534859
  H         1.2039255210        5.7256202915       26.0435190371
  H         2.5610702850        4.5486891272       26.4521695190
  C         1.6234648635        5.7765947873       28.0145871518
  S         6.3954082596       -2.3298100253       28.6491105093
  N         5.9049001722       -1.7919671967       30.1541872624
  C         5.2842221921        0.2735937462       31.2490258253
  H         4.5416676139        2.3002242512       31.8003285960
  H         7.0344935694        1.1814741158       20.7198791834
  H         7.5945463112        1.5927068489       19.0606242140
  C         6.1517444486        2.8183203185       19.7992030919
  H         9.8485280480        1.1513998292       19.9169028164
  H         9.7199009482        1.1427487634       21.7191392884
  C        11.2686669005        2.5045905916       20.9034302785
  H         9.1087240600        3.7633138029       17.7885489396
  C         9.9650014383        6.4455630916       17.2186367448
  H         0.8996622407        5.0651883525       28.2636173513
  H         1.0261548427        6.6898076722       28.0066541801
  C         2.6449721792        5.9165020608       29.1397754791
  C         5.0209618347       -0.4402013925       32.4454805326
  H         6.3977123186        3.6896158849       19.1485824884
  H         5.6681652745        3.1927527242       20.7344494734
  C         5.0532877865        1.9759976102       19.1444933561
  H        11.2171135667        3.2294130911       21.6841971746
  H        11.5388867012        2.9664982645       19.9796025218
  C        12.4608474618        1.5989157390       21.1913467897
  C         9.9802814670        7.8647423078       17.0326177930
  C        10.3204693428        5.6289149496       16.0154108637
  H         3.0245718786        4.9448387134       29.1863118157
  H         3.4933438147        6.5730923351       28.8280693000
  C         1.8770375698        6.0331610038       30.4407607104
  H         4.9842668881       -1.5018708836       32.3373285098
  C         4.6728238539       -0.0854500335       33.7173410178
  H         4.7760961922        0.9829673878       19.6114919725
  H         5.4697888417        1.6256501282       18.2517365839
  C         3.7153057047        2.7210679302       18.9551716085
  H        12.4693330782        1.2831303894       22.2404528759
  H        12.4609521697        0.6814578548       20.5876345219
  C        13.6708487253        2.4446651823       21.0134387353
  N         9.7200456505        8.8138281088       18.0557157146
  C        10.3779571459        8.4467774042       15.8021764107
  C        10.5652997896        6.2480120894       14.7513198151
  H        10.3951426866        4.5551225669       16.0379840436
  H         1.0891091853        6.7531404744       30.2565836103
  H         1.6032736173        5.1207915304       30.8669319426
  H         2.4381561275        6.6976187797       31.1320556739
  S         4.4255018860        1.5348890595       34.3341054656
  C         4.6125114315       -1.1808058086       34.7236568085
  H         3.4294309824        3.2879561761       19.8620645080
  H         3.8015504811        3.4975809680       18.1241752418
  C         2.5866731551        1.7066657856       18.6810763634
  H        13.4632368657        3.3121502434       20.3818185766
  H        14.2913960956        1.7875073240       20.3549592222
  C        14.2261273897        2.8070530886       22.3774984228
  S         9.9823777491       10.2976612445       17.3795040897
  N        10.5831581751        9.8373875985       15.9031672164
  C        10.6639913172        7.7255598415       14.6276237673
  H        10.6105919138        5.5733179948       13.9475391801
  C         4.1660195482        0.7086445221       35.8647461183
  N         4.1993093667       -0.6249386602       35.8573649317
  O         4.7937508214       -2.3704709042       34.4298490610
  H         1.6186423831        2.2246232536       18.7389186441
  H         2.4988817884        0.8718551151       19.3888130423
  C         2.6892400198        1.0381154117       17.3343978977
  H        14.8117039729        3.7352241032       22.2369593174
  H        13.3998179114        3.0608948911       23.0395221286
  C        15.0859311839        1.7074026190       23.0154420348
  C        10.9107345682        8.3470157345       13.3403742364
  S         3.5300470674        1.5961268154       37.2415917561
  C         4.3439443131       -1.3870908631       37.1156851158
  H         2.5379655968        1.8050571260       16.5761626698
  H         3.6244525818        0.4693026348       17.3461985638
  C         1.5295857884        0.0392693383       17.2447356338
  H        15.4810135484        1.0794132725       22.1619561667
  H        14.5126313978        1.1030389144       23.7256193799
  C        16.3127711175        2.2032644903       23.7423393363
  H        10.7171692848        9.4085570896       13.3257729950
  C        11.4364080353        7.8863861978       12.1626458437
  H         3.6553345871       -0.9508611616       37.8258409906
  H         4.0141072877       -2.4437306835       36.9409444427
  C         5.7776297399       -1.1487981759       37.6553798480
  H         1.2244762732        0.0226805424       16.2100311296
  H         0.7670728048        0.4115987037       17.8810450783
  C         2.0469963116       -1.3296329002       17.6283713562
  H        16.1185113719        3.1564066359       24.3147971968
  H        16.6673299235        1.5435433432       24.5109571338
  C        17.5221111604        2.4922993728       22.8677932697
  S        11.8643080146        6.2554968309       11.7814035842
  C        11.3458080373        8.8405201292       10.9866820226
  H         5.7870410448       -0.1337258310       38.1053946564
  H         5.9376323882       -1.8649869364       38.5128952746
  H         6.4997141597       -1.2488651581       36.8708507909
  H         2.0078443087       -1.4517358992       18.7236064434
  H         3.0328395862       -1.5836333581       17.2159167061
  H         1.4754287388       -2.1381412072       17.2289274160
  H        18.3661897660        2.8044197713       23.4376871117
  H        17.3243942525        3.1732001124       22.0256618556
  H        17.8954717403        1.6050576953       22.3850559922
  C        12.1029672871        6.8760316961       10.1360192790
  N        11.7017150414        8.1312208980        9.8772802305
  O        11.0634768598       10.0165299071       11.0059307059
  S        12.5824837127        5.8507058046        8.7775792727
  C        11.6847177080        8.6141427275        8.5132954855
  H        12.7328590784        8.7823527744        8.1279196030
  H        11.2433794930        7.9566672687        7.8338634917
  C        10.9226000028        9.9145118655        8.2669413767
  H         9.9176766534        9.9778366740        8.6390177087
  H        11.4401979479       10.7205526805        8.8040489525
  H        10.9737571419       10.1941619042        7.2015870694
  H        -2.2538434362       15.0034967844       15.7038896408
  C        -2.9043680343       14.1834292573       16.0123116113
  H        -3.8107563392       14.7066520338       16.2289823376
  C        -2.2821219604       13.5540273837       17.2459119844
  C        -3.3611936118       13.1642844994       14.9899757949
  C        -2.7257963381       14.0354923339       18.5918555630
  H        -2.3781793560       12.4227189488       17.1427799081
  H        -1.2166750729       13.6797395802       17.2247269711
  H        -2.7416862891       12.2347467672       14.8566378000
  H        -4.3435633216       12.7665758603       15.2473086114
  H        -3.4267412142       13.6912835122       14.0226548305
  C        -1.8735842532       13.3444195832       19.6476418018
  H        -3.7439326039       13.9528166933       18.8664383024
  H        -2.6142735943       15.1243625786       18.6197325786
  C        -2.2977147467       13.7472322226       21.0954991686
  H        -1.9235252966       12.2458123173       19.5287596128
  H        -0.8128323860       13.4846119302       19.3603186665
  C        -1.3863941633       13.2498162407       22.1357966821
  H        -3.3437339876       13.4501067720       21.3767576134
  H        -2.2066463204       14.7976650004       21.1552520895
  C        -0.0288737752       14.0391090478       22.2582530151
  H        -1.8792409596       13.3687750863       23.0964526003
  H        -1.1550986853       12.1990087800       22.0018403505
  C         1.0999524648       13.2844538366       23.0762804578
  H         0.2717342742       14.1658607416       21.2495057140
  H        -0.0624818069       15.0101904787       22.8744987813
  C         1.5085838554       12.0023847208       22.4214322021
  C         0.8037456948       12.5707256155       24.3191866542
  C         2.3020082136       14.2075365528       23.2170107475
  C         1.3517413136       10.8815451381       23.2066453824
  C         2.0210979982       11.6996658989       21.1153352486
  C         0.8896382297       11.2350586855       24.4611614015
  C         0.3887316347       13.2677784677       25.5179753748
  H         2.4884083713       14.5796950449       22.1670945019
  H         2.1383937837       15.0299376771       23.9456268405
  C         3.5610976762       13.6296558176       23.9073746443
  S         1.8250152009        9.3996406348       22.4730480163
  C         2.1439277886       10.2962912408       20.9677504153
  H         2.1358997854       12.5432972771       20.4567316588
  C         0.5822720377       10.6084173411       25.6396116741
  H         0.3386517538       14.3229609827       25.6380931132
  C         0.1803891071       12.5857789542       26.6860891137
  H         3.8169560776       12.6384124866       23.5097325228
  H         3.3501783163       13.4170160089       24.9466200043
  C         4.7773170440       14.6591951200       23.7642605014
  C         2.5976294737        9.6053017932       19.7219410696
  C         0.2473487130       11.2479564692       26.8037248151
  H         0.5923380219        9.5270763315       25.6944814830
  C        -0.2480627781       12.9180260132       27.9751593908
  H         5.6268987828       14.3495938040       24.2835765184
  H         4.3313997980       15.5704482340       24.2394861818
  C         5.4832928979       14.8136782098       22.3778930941
  C         2.5540485496        8.2024372311       19.4379338892
  C         3.0369310038       10.4268568515       18.5936198192
  C        -0.1486097724       10.4769335455       27.9550650107
  C        -0.4894001532       11.7882160567       28.7440863436
  S        -0.7597609700       14.3719589909       28.8020668894
  H         6.1998981372       15.5624939455       22.5459861648
  H         4.8085081573       15.2583777549       21.5859797163
  C         6.0541190505       13.5309155029       21.8211454310
  N         2.0793342011        7.3048729525       20.4048769017
  C         2.7708782273        7.6601330785       18.2231703528
  C         3.4127204143        9.8667367288       17.3436002975
  H         3.0713711724       11.4686999828       18.6427639148
  C         0.7957334634        9.6457468744       28.7017530280
  C        -1.4657315454        9.6955014107       27.8694003222
  C        -0.9813711814       12.1285193264       29.9805536051
  C        -1.0957540241       13.4241048870       30.1993055718
  H         6.4808632753       12.8605156600       22.5459872367
  H         5.2163930788       12.8796163009       21.3789110350
  C         7.0897820680       13.8326200690       20.6674525694
  S         2.1459582008        5.7988917579       19.7966827609
  N         2.6521358581        6.2390557731       18.3405336748
  C         3.2891249848        8.3733668141       17.0908901072
  H         3.7649625575       10.5877235089       16.5694236738
  H         1.0651450075        8.7268411841       28.1804299367
  H         0.2574969429        9.3260887097       29.5543329345
  C         2.0986311782       10.3517914177       29.0078353524
  H        -1.2294677145        8.9585926514       27.1241942990
  H        -1.6651815259        9.3271326489       28.8304519159
  C        -2.6913205235       10.5649388157       27.6055652347
  H        -1.2563536752       11.3374234322       30.6057165469
  C        -1.6125271758       14.0895788226       31.4663163665
  H         7.7627422570       13.0352737608       20.4834867612
  H         7.8806534754       14.5943600289       20.8883357315
  C         6.5154668688       14.2975303061       19.3032803853
  C         3.6312402790        7.5802037212       15.9023700881
  H         2.5121639894       10.5254176390       27.9813935857
  H         1.9703819303       11.2822158300       29.5566303505
  C         3.0454770875        9.4683806726       29.8048180632
  H        -2.5726262452       11.2127341906       26.7476110260
  H        -3.0428708782       11.0832218203       28.4971445881
  C        -3.7986529526        9.6655943067       27.2386317076
  C        -1.7424753466       15.4981398239       31.5765954776
  C        -1.7154699335       13.4358151206       32.8012438316
  H         5.6016835987       14.8813751743       19.5046737610
  H         7.0858748579       15.0784540517       18.7610401794
  C         6.2454291153       13.1591627694       18.3917179066
  H         3.3683928031        6.5229056889       15.9676231397
  C         3.7196847598        8.0423508910       14.6420917917
  H         3.4725234887        8.6784882272       29.1803662933
  H         2.4191822973        9.0141185970       30.5498670592
  C         4.3277085053       10.2237100561       30.3236993654
  H        -3.4173593126        8.8014767598       26.6923287323
  H        -4.2417261341        9.3089278112       28.1555355556
  C        -4.7652299709       10.4799591912       26.4651870483
  N        -1.3732486383       16.4757814615       30.6318112151
  C        -1.9937644251       16.1336899769       32.7716202391
  C        -2.0997278518       14.0705729344       33.9801447401
  H        -1.6616138082       12.3712923590       32.7869685933
  H         7.1849764623       12.6690638143       18.1453905341
  H         5.5817867913       12.4697667846       18.9284241878
  H         5.7298401125       13.6385024983       17.5467356866
  S         4.0353801119        9.6111805111       14.1266414180
  C         3.6610943976        7.0878481425       13.5782806353
  H         4.5565032334       11.0075416261       29.5936543206
  H         4.0577167194       10.8620924778       31.2182074469
  C         5.5195360551        9.2934884868       30.5144328215
  H        -4.5389407988       10.7341818805       25.4352702022
  H        -4.6397380711       11.4809511053       26.9656399379
  C        -6.2011728052       10.0025479158       26.4465627159
  S        -1.4949497815       17.9772148090       31.3001892674
  N        -1.9092317528       17.5832093904       32.7206868588
  C        -2.2614510338       15.5274944205       34.0273852465
  H        -2.1023058993       13.3198247280       34.8385812036
  C         4.1038570197        8.9656584135       12.4762147273
  N         3.9632380253        7.6533562787       12.4117941134
  O         3.4759778020        5.9080890733       13.8498377272
  H         6.3603190686       10.0112080277       30.6650984277
  H         5.7902318198        8.7172572930       29.6523436604
  C         5.3048153884        8.5238365160       31.8533695977
  H        -6.2779778527        9.2900354517       25.7115796449
  H        -6.4993085738        9.7112103056       27.4409927632
  C        -7.2248753483       11.0708059423       26.0942628502
  C        -2.4165003392       16.3078451879       35.1798286607
  S         4.6768916751        9.7565685816       10.9878738884
  C         3.9413111144        6.9157519895       11.2117983537
  H         5.3897129378        9.2743151665       32.6739207619
  H         4.2544453864        8.0955665902       31.9911070599
  C         6.3064865850        7.4699364263       32.0951261419
  H        -7.1626352738       11.2895909255       24.9759535747
  H        -6.9785609097       11.9973216562       26.5576576431
  C        -8.6678838344       10.6366590074       26.4263287853
  H        -2.1309084085       17.3124986542       35.1638288327
  C        -3.0239717276       15.9210489968       36.3463778874
  H         4.5897715147        7.2583981470       10.4214512192
  H         4.4602715551        6.0221545729       11.5748959462
  C         2.5835860582        6.8244235344       10.5702309409
  H         6.2800720950        7.0495447393       33.1099606244
  H         7.1856703953        8.0499199654       31.9641795051
  C         6.2166208207        6.3069001472       31.1119273847
  H        -8.6691180174       10.1044727995       27.3472617211
  H        -9.2325071872       11.5582815848       26.5313062965
  C        -9.2563544292        9.7165301954       25.3748181433
  S        -3.7994064910       14.4342313164       36.7083858411
  C        -2.8800059454       16.8522676793       37.4990752000
  H         2.3048365629        5.7877630171       10.3946845961
  H         1.7972831556        7.2847937200       11.1674721838
  H         2.6141135931        7.3879798548        9.6421653600
  H         6.2293725350        5.3637875082       31.7184609730
  H         6.9832632155        6.2651709988       30.3659574342
  H         5.2549621619        6.4288254339       30.5850655207
  H       -10.3576605823        9.6427415025       25.4131458190
  H        -8.7442730989        8.7755111608       25.4355698755
  H        -9.0765690896       10.0527903003       24.3417116383
  C        -3.8937691076       14.9990610882       38.3421475060
  N        -3.6269447153       16.3471585210       38.4797647809
  O        -2.5214254196       18.0121299654       37.4210331437
  S        -4.5284405964       14.0772496754       39.7403103497
  C        -3.8457049862       17.1487160818       39.6804207720
  H        -3.8603978730       18.1692592767       39.4255404285
  H        -4.8068934104       16.9280195588       40.1756321772
  C        -2.6944285076       16.9505437404       40.5478355794
  H        -2.3289414798       17.9166774695       40.8555624139
  H        -2.9717829950       16.3312997999       41.3913089668
  H        -1.7812842232       16.5112881306       40.1399894368
