352
 i =    59800, time =    59800.000, E =        25.0247996571
  H        10.4842141744        4.6166822904       31.3023115402
  C        11.0223430392        5.4663170429       31.7412551712
  H        10.2870198916        6.2328340934       31.7752589593
  C        12.1901517245        5.9932075846       30.8166958341
  C        11.4081192354        5.1495596204       33.1842224455
  C        12.1210967122        5.5251350577       29.3428182961
  H        12.0678387981        7.1093476201       30.8444477434
  H        13.0807044489        5.7911272257       31.3285161432
  H        10.5793203834        4.6686657223       33.7130472272
  H        12.1576659049        4.3972316049       33.2205874775
  H        11.4957928906        5.9766506654       33.8310328511
  C        10.6855531932        5.4876565261       28.7465758078
  H        12.4494496293        4.5123823104       29.1869485841
  H        12.7463071255        6.1706997059       28.7109286501
  C        10.8816426364        5.4215473396       27.2091804798
  H        10.1213198011        4.5655825380       28.9716788167
  H        10.1310358828        6.3514803772       29.0492727395
  C         9.6883762035        4.7366946041       26.4016487484
  H        11.7552728393        4.7735754498       27.0771412307
  H        11.0554437353        6.3819771213       26.7805104594
  C         8.4451989660        5.6009061921       26.2288375615
  H        10.1156954684        4.6144159902       25.3646076414
  H         9.4527784607        3.7563631505       26.8093821245
  C         7.2618058019        4.8509672371       25.3773399415
  H         8.0472083058        5.7258983828       27.2597573964
  H         8.7993185426        6.5734166578       25.8526664924
  C         6.8602249222        3.5044113511       26.0530690240
  C         7.6842970921        4.0707179695       24.1925456070
  C         6.1254397383        5.7877263537       24.8935905462
  C         7.1102089818        2.3638673036       25.3439447964
  C         6.2929980526        3.2289123681       27.3072122990
  C         7.6143412983        2.6949808912       24.1235568870
  C         8.0768306425        4.7531214531       23.0629990573
  H         5.8275879266        5.5625402923       23.9077904014
  H         6.4651608859        6.8475219811       24.6325942787
  C         4.7855402488        5.8431128675       25.7402441387
  S         6.5736098436        0.9509104586       26.0964267717
  C         6.0421300447        1.8498937705       27.4572305214
  H         6.1035734729        4.0031700984       28.0110092234
  C         7.9667377608        2.1121881686       22.9159356233
  H         7.9871028042        5.8146099168       22.9969135215
  C         8.4094728411        4.0711003672       21.8763307299
  H         4.6550448923        4.7699197699       25.9865760799
  H         4.6043498543        6.4843729338       26.5997812060
  C         3.5553525205        6.0829177528       24.7733634361
  C         5.5812641380        1.2234952551       28.7556398900
  C         8.3916557426        2.7743782023       21.7888097584
  H         8.0816910766        1.0326100012       22.8119553845
  C         8.6942599128        4.4554835009       20.5958468653
  H         3.3742864431        5.3180013225       24.0127929576
  H         3.7426248428        7.0135057448       24.2109377078
  C         2.2434134933        6.3041722490       25.4966734859
  C         5.6437993054       -0.1443695056       29.1140622177
  C         5.2036807682        2.0501047110       29.9033265293
  C         8.7215084924        2.0626961772       20.4995270658
  C         8.8450033499        3.3972727554       19.7585272985
  S         8.9188079731        5.9933538627       19.8437729077
  H         1.4935367677        6.7808682489       24.8830610716
  H         2.4088936670        6.9674776032       26.3667197988
  C         1.6888300268        4.9927095626       26.0424248446
  N         6.0646703966       -1.1773804317       28.2216848833
  C         5.4415727663       -0.6497165738       30.3980848902
  C         4.9625325900        1.5718813110       31.1879897974
  H         5.2073875838        3.0553533616       29.8288354992
  C         7.5132246303        1.1591654095       19.8784300359
  C        10.0797760303        1.2795735787       20.6412195779
  C         9.2002373664        3.7845458677       18.4435853871
  C         9.3408293365        5.1457929729       18.2986152573
  H         0.9290024149        4.7679474065       25.3082964373
  H         2.4285554937        4.2208050469       26.0151167815
  C         1.0556516080        5.1753682420       27.4684202079
  S         5.9922457900       -2.5916128259       29.0452582699
  N         5.6535945937       -2.0334093973       30.5137661156
  C         5.1677914105        0.1632915916       31.5329197979
  H         4.6079529819        2.2790885811       31.9359693879
  H         7.0656059528        0.4170045145       20.5967835984
  H         7.9674725507        0.5147818794       19.0554489338
  C         6.4183295110        1.9806756311       19.3273551099
  H        10.2175479616        0.9383560076       19.6560849087
  H         9.9046495241        0.3657455037       21.1620787583
  C        11.3891664718        2.0937035217       20.9513032561
  H         9.4420969874        3.0359431960       17.6660222123
  C         9.6079112235        5.8729222912       17.0289450393
  H         0.3642785229        4.4060517665       27.6887097198
  H         0.5812284176        6.1759310081       27.5114493602
  C         2.1233102031        4.9288804906       28.5547993913
  C         5.0303477779       -0.4710562087       32.8401311756
  H         6.6836695636        2.3032678148       18.3214084903
  H         6.3931574357        2.8814476514       19.9399817497
  C         5.0818976316        1.3815262421       19.1024333338
  H        11.2177958058        2.6521786069       21.9055144338
  H        11.4470405329        2.8502217084       20.1800270866
  C        12.6245900200        1.1734767450       21.1266343631
  C         9.7406324426        7.2576421096       16.8449475721
  C         9.7183195325        5.1318121916       15.7962685060
  H         2.4256610254        3.8833750820       28.5459787552
  H         3.0148320603        5.5055880435       28.3151767645
  C         1.5888596439        5.2459750240       29.9578260222
  H         5.1882694670       -1.5385100885       32.9651976803
  C         4.8715575353        0.0457311245       34.1598213751
  H         4.4799160035        1.4604619681       20.0461163433
  H         5.2707643239        0.2279309783       18.9776204606
  C         4.2854453806        1.9980128880       17.9902595367
  H        12.4277982140        0.4621181676       21.9454356066
  H        12.7241051943        0.5318686497       20.2372128981
  C        13.9515714018        1.8291861439       21.3486152126
  N         9.5744826559        8.2481748275       17.8150021249
  C        10.1398597094        7.8095033073       15.6331858835
  C        10.1390093102        5.6612370718       14.5594323787
  H         9.3413677208        4.0770803624       15.8991411796
  H         1.1026091137        4.3160802835       30.3608695014
  H         2.4353211370        5.4271759928       30.5622372952
  H         0.8853089731        6.0960081251       30.0838452674
  S         4.3804188087        1.6409614543       34.4760849993
  C         4.7376850226       -0.8818567307       35.2765279912
  H         4.1431131168        3.0798056701       18.1774165203
  H         4.9619960190        2.0341703814       17.0572615591
  C         2.9146088718        1.3606331577       17.5960104355
  H        14.0137824235        2.6654084138       20.6780059451
  H        14.8069331235        1.2642168951       20.9567760490
  C        14.1461393193        2.3037022659       22.8127680123
  S         9.9978212835        9.6667974803       17.2104527253
  N        10.4232095257        9.1992203384       15.7194342050
  C        10.3349131006        7.1212057248       14.4810297899
  H        10.2659032725        4.9555836757       13.7022360458
  C         4.1495102714        1.1228150727       36.1204227907
  N         4.4008926309       -0.2001824599       36.3374296218
  O         4.8075796926       -2.1046168244       35.2344365274
  H         2.2820385186        2.0222054067       16.9543355145
  H         2.4064095591        1.2201657674       18.5020975030
  C         3.0466609624        0.0208849993       16.8777697330
  H        13.5218146542        3.0836986328       23.0585907136
  H        13.8473896474        1.4685370693       23.5440777242
  C        15.4951254993        3.0683721280       23.0365908555
  C        10.7407212903        7.7519896661       13.2715956939
  S         3.8117466970        2.0283171044       37.5321386457
  C         4.4105866705       -0.8339729579       37.6795086888
  H         3.3187717313        0.2834306284       15.8080119053
  H         3.9045016971       -0.5161831629       17.3103615758
  C         1.8233795751       -0.8686911828       16.9195076812
  H        15.3398592979        3.5944739112       23.9743269224
  H        15.6862325011        3.7894073621       22.2033968655
  C        16.7218632547        2.2286833192       23.2091821754
  H        10.5412579307        8.8007154465       13.2344261442
  C        11.1675868348        7.3230468591       12.0055240822
  H         3.9473366550       -0.2733828786       38.4992870354
  H         3.8993813009       -1.7957340805       37.6134016678
  C         5.9136817609       -0.9818682810       38.0558000580
  H         1.4034857573       -0.7841585771       15.9204064489
  H         1.1264216012       -0.4173055133       17.6471262621
  C         2.1481046230       -2.3341998947       17.2577655011
  H        17.1445019103        2.3002391540       24.1785669910
  H        16.2638444801        1.1960532994       23.2142665650
  C        17.8793111014        2.3838180827       22.2524922749
  S        11.8007674700        5.7828550668       11.6353604373
  C        11.3630901460        8.3813701517       10.9720915214
  H         6.4584142418       -0.0581981998       38.2470507928
  H         5.9323061524       -1.5018274169       38.9880102674
  H         6.6076015927       -1.6670626754       37.5193562985
  H         2.6849463632       -2.4605718537       18.2400910227
  H         2.8462771593       -2.6230126678       16.4947327766
  H         1.2636939580       -2.9167413755       17.3294417244
  H        17.5992521836        2.6965984409       21.2756897678
  H        18.4527709249        1.4974767570       22.1770178806
  H        18.6374162260        3.0931881680       22.5756515231
  C        12.2444093190        6.5126088018       10.1146758286
  N        11.9475745707        7.8152006292        9.9540690084
  O        10.9344851117        9.5347519805       11.0312298100
  S        13.0309953591        5.6742143165        8.8075450584
  C        12.1937005581        8.6599914147        8.7921653376
  H        12.4248575757        9.6607197305        9.0397630439
  H        13.0623861286        8.4297180079        8.2587660632
  C        10.9049511093        8.7206912152        7.9395791326
  H        10.0366783654        8.2935533545        8.4484153862
  H        10.5247582600        9.7471236506        7.8397617036
  H        11.1004071472        8.1390600362        7.0294955397
  H        -4.0858146225       13.2468632131       15.9568817288
  C        -3.0320972117       13.0950331478       15.9147676530
  H        -2.8175868879       12.0448059351       15.9742535633
  C        -2.4126992442       13.8344645433       17.1119124568
  C        -2.7870929028       13.7837107719       14.5575815213
  C        -2.7213244563       13.2268418726       18.4328979791
  H        -1.3828563239       13.7504261075       17.0663884337
  H        -2.6609856356       14.8732581131       17.0541163823
  H        -3.3016974502       14.7388463924       14.6140552099
  H        -1.7129766417       13.9396893242       14.4929831854
  H        -3.1452562718       13.2217841232       13.7810329577
  C        -2.0081081604       13.9341305593       19.5945389855
  H        -2.3180883666       12.2222302341       18.4271607093
  H        -3.7634486484       13.3227387939       18.6528098744
  C        -2.5959234192       13.5065897653       20.9663591420
  H        -0.9383429655       13.7036893050       19.6277562137
  H        -2.2510231271       15.0677149575       19.4816404980
  C        -1.5384580478       12.7900961901       21.8602977372
  H        -3.4418106297       12.8339484706       20.7842471535
  H        -2.9106077988       14.3976727162       21.5731322203
  C        -0.2752488166       13.6390413583       22.2864403502
  H        -1.9896856938       12.4891011804       22.8198410827
  H        -1.0270812571       11.9649204776       21.3069306606
  C         0.8409850747       12.8655834331       23.0563051869
  H         0.1463037868       13.9121758292       21.3293983559
  H        -0.5491444959       14.5736436886       22.8289709529
  C         1.3198918058       11.6160188731       22.3615430044
  C         0.4885851710       12.0821253673       24.2841974409
  C         2.0811387746       13.8291447508       23.2668164119
  C         1.1584538200       10.4854034502       23.1557505491
  C         1.9433922154       11.2859942919       21.1384298577
  C         0.6519856437       10.7540262669       24.4097644441
  C         0.0282794645       12.7085621058       25.4475413044
  H         2.4511477637       14.1925666650       22.3151775433
  H         1.7582867975       14.7261350875       23.7515509709
  C         3.2908483053       13.2774329113       24.0034950441
  S         1.5713550679        9.0185325882       22.3399506890
  C         2.0128994608        9.9361577600       20.9112615271
  H         2.1638905339       12.0723055580       20.3709293233
  C         0.3001492302       10.1147459037       25.5572198883
  H        -0.0758524853       13.8058792898       25.4810343715
  C        -0.0809231474       12.0725497519       26.6429502733
  H         3.5939996064       12.3080630881       23.5385270397
  H         2.9816910265       13.0273806992       25.0212852294
  C         4.5365377535       14.2124092640       23.9758931517
  C         2.4376175028        9.2223681492       19.6262291145
  C        -0.0719710897       10.7209415694       26.7216875665
  H         0.2880189775        9.0319163215       25.6250020191
  C        -0.5256254674       12.3769413963       27.9084866291
  H         5.3091155528       13.6754179463       24.5930868736
  H         4.2718541074       15.0788507816       24.6164077322
  C         5.1839116686       14.5079279687       22.6099359541
  C         2.3947324740        7.8223544193       19.3681800399
  C         2.7574677887       10.1059849354       18.4193656579
  C        -0.3627688399        9.9226931911       27.9015891888
  C        -0.5144631070       11.2723473579       28.7449740512
  S        -0.8535031022       13.8877383900       28.6883202862
  H         5.8825314978       15.3438842371       22.4620783661
  H         4.4126544350       14.7406488942       21.8316065167
  C         5.9478670220       13.2383527817       22.0376018726
  N         2.1475953067        6.8192898696       20.3562103668
  C         2.6345777239        7.2536618350       18.1147360883
  C         2.8803440469        9.5135468930       17.1507421978
  H         2.8763457200       11.1952548677       18.4128968236
  C         0.8488514077        9.0995880743       28.4494339661
  C        -1.7180014025        9.1341852111       27.8069857927
  C        -0.8283507766       11.6935302839       30.0642869673
  C        -1.1354660760       13.0296020181       30.1653349572
  H         6.9152303583       13.1109993226       22.5883578045
  H         5.5005855197       12.3148170698       22.3084479069
  C         6.2447424830       13.3513244699       20.5937017191
  S         2.0416366085        5.4012629584       19.6177454711
  N         2.4434871109        5.8712247830       18.1158754559
  C         2.9437376684        8.0652825939       16.9774477223
  H         3.1725104842       10.1792690293       16.3079282603
  H         1.2896522832        8.4369615841       27.7029478790
  H         0.5240713249        8.4423195955       29.3080896791
  C         2.0760005064        9.9006809670       28.9419926499
  H        -1.5051975760        8.3810366859       27.0050485827
  H        -1.8193743811        8.6012034919       28.7524584750
  C        -2.9191547531       10.1036912716       27.4766829816
  H        -0.9085006358       10.9291188073       30.8606940943
  C        -1.4384931401       13.8819996861       31.3935492422
  H         7.1947298118       12.9418132715       20.2933343100
  H         6.3502983838       14.4227931049       20.3694584875
  C         5.1865144039       12.8066630680       19.7595098043
  C         3.1161211864        7.3342270820       15.7617868134
  H         2.3831194508       10.6284353255       28.1069845877
  H         1.8709892845       10.5590143213       29.7878792266
  C         3.3447308059        9.1242243034       29.5086715347
  H        -2.6854136111       10.7303485105       26.6058082206
  H        -3.2338405759       10.8177363183       28.2263731825
  C        -4.2183923587        9.3532333048       27.1490990620
  C        -1.5628650901       15.2878490308       31.5274735140
  C        -1.7351569773       13.1440896602       32.6671788141
  H         4.9705879936       11.8036967885       20.0147188851
  H         4.3376711732       13.3335366386       20.0087206049
  C         5.6786952887       12.9232760657       18.2744064650
  H         2.8328735334        6.3192291487       15.7965411256
  C         3.4770095227        7.6631854346       14.4399369548
  H         3.9872456246        8.7964492838       28.7015642433
  H         3.0237885327        8.1471129702       29.8849022999
  C         4.2052715262        9.7703505347       30.4780395717
  H        -4.0697924005        8.6375474901       26.3502136457
  H        -4.5014972070        8.6280551425       27.9790627049
  C        -5.3896380947       10.3666874868       26.7151133188
  N        -1.4085981132       16.2189138309       30.4966083342
  C        -1.8928097947       15.9441523753       32.7423157998
  C        -2.1150344252       13.8342377310       33.8277908333
  H        -1.6438975406       12.0633020065       32.6023812357
  H         6.7350727581       12.6412308887       18.1629637598
  H         5.0735474226       12.4788695215       17.5185425461
  H         5.5947394276       13.9710282462       18.2340922738
  S         3.7815275057        9.2947034977       13.9067976090
  C         3.4564939012        6.6110435517       13.3695218816
  H         4.6708193842       10.6812233095       30.0865632225
  H         3.6740866117       10.1117932501       31.3786022307
  C         5.3825962111        8.8376235452       30.9084235747
  H        -5.0421799745       11.0643244293       25.9712304250
  H        -5.7834975554       10.9239343841       27.5744735202
  C        -6.5327130662        9.6017884974       26.1243317095
  S        -1.2211647113       17.7175904170       31.1603070405
  N        -1.6676830262       17.3473285191       32.6671319614
  C        -2.2593284537       15.2835246981       33.9376598613
  H        -2.2560231299       13.1347479760       34.6504247585
  C         3.9401888370        8.5447991896       12.2947444659
  N         3.8456846153        7.1642081709       12.2107079020
  O         3.4414567615        5.3633258703       13.6164149602
  H         5.7723902407        9.2010445706       31.8134388423
  H         6.1584616120        8.9473162936       30.0997823105
  C         5.0798976047        7.4240776809       30.9692635886
  H        -6.1701209908        9.0747310780       25.2948560816
  H        -7.1437071304        8.9103312128       26.7428202131
  C        -7.5186925029       10.7346834028       25.6279206341
  C        -2.5656298570       16.0592377076       35.1453946867
  S         4.5078641254        9.3747399443       10.9193272302
  C         3.9857937577        6.3523892131       10.9556806014
  H         4.3223374384        7.3575360140       31.7335968452
  H         4.7724907451        7.0358315967       29.9393774912
  C         6.2798227309        6.5298793142       31.4638888950
  H        -6.9576361222       11.3938292233       24.9469508906
  H        -7.8913893516       11.3785412815       26.4900909802
  C        -8.7079095801       10.1083748634       25.0379181275
  H        -2.7230338463       17.1328216947       34.9773025697
  C        -2.9273305718       15.6971162354       36.4421418022
  H         4.8534812820        6.6036885079       10.4069255733
  H         4.1307641438        5.2788323706       11.1936780613
  C         2.6808064463        6.4826897888       10.0700875084
  H         5.9017783478        5.8396477339       32.2978592460
  H         6.8705497033        7.3282288266       31.9609224044
  C         7.0735796060        5.8999175181       30.4509305010
  H        -8.9836941746       10.7952663143       24.2046378537
  H        -8.4450728730        9.1219573296       24.5764879205
  C        -9.9859981071        9.9495577016       25.9610797448
  S        -3.1655553235       14.1189019508       36.9860872785
  C        -3.1230263041       16.7522714201       37.3971196695
  H         1.9794715868        7.1078327517       10.7304861128
  H         2.7477668732        6.9659388850        9.1041747523
  H         2.2794101417        5.5004834207        9.8564568714
  H         6.5189891587        5.1019401744       29.9952880654
  H         8.1297289839        5.6078001856       30.8324320036
  H         7.2221550324        6.5627444591       29.5878884193
  H       -10.7478944431        9.3145264007       25.4102303629
  H       -10.3998061502       10.9030299968       26.1550368425
  H        -9.6740269284        9.5568034114       26.9243709588
  C        -3.6847610747       14.8545531366       38.4760683149
  N        -3.7065321069       16.1698850089       38.5119164753
  O        -3.0116241408       17.9368055054       37.1932836158
  S        -4.4450559680       13.9995836917       39.8412128347
  C        -3.9705795268       17.0335827488       39.6510291943
  H        -4.2108252123       17.9807955718       39.2575106716
  H        -4.7857543418       16.6080662619       40.1978687655
  C        -2.7058951073       17.2051035298       40.5352927489
  H        -2.8141208500       16.7182987624       41.4849792325
  H        -1.8922595321       16.7379404302       39.9189749352
  H        -2.4546390931       18.2391257598       40.7393036744
