352
 i =    74200, time =    74200.000, E =        25.1948892239
  H        11.4556843038        7.1562311840       32.3052117785
  C        11.0781025112        6.1328417490       32.4515574960
  H        11.9792403332        5.5048699470       32.5770539318
  C        10.3047130740        5.6503245213       31.1898172121
  C        10.3217508920        6.1132930307       33.7359063986
  C        10.9032844203        6.1427742477       29.8867527780
  H        10.1789637325        4.5472803521       31.2446197439
  H         9.2662537083        6.0308046582       31.2404478610
  H        10.4210108000        5.0889301485       34.1720889948
  H        10.7035893804        6.8663437855       34.4780605059
  H         9.2669162838        6.4492521860       33.5664634574
  C        10.4797174450        5.3379738846       28.6495044108
  H        11.9409845467        6.0135516791       29.9574918897
  H        10.5961326585        7.2097394521       29.7943145261
  C        10.0114204959        6.1821351045       27.4700154981
  H        11.3978931430        4.7718691748       28.4183432162
  H         9.6931575224        4.6861895482       28.9733406802
  C         9.1856019652        5.2583718370       26.4916381709
  H        10.9434717796        6.5736826470       27.0579578044
  H         9.2644128544        6.8788013389       27.8991183073
  C         7.9937222470        6.0480392891       25.8695325248
  H         9.7055208242        4.5360320592       25.8167177012
  H         8.7042160355        4.6081273249       27.1659963022
  C         7.0005460737        5.1699021336       25.0290295749
  H         7.5712853639        6.6343806522       26.7148460298
  H         8.3555690872        6.9569413967       25.3232394740
  C         6.6134877946        3.8405041359       25.8814511411
  C         7.5547830605        4.3203633118       23.9393820663
  C         5.7519204715        6.0269461704       24.5517841819
  C         6.8656868535        2.7142401910       25.1406461468
  C         6.1608264354        3.5489148199       27.1666626583
  C         7.4924266146        2.9809023970       23.9125505112
  C         8.1263651469        5.0129974643       22.8565522129
  H         5.4544608797        5.7619158353       23.5762653744
  H         6.0516789367        6.9998114002       24.5665075366
  C         4.5260676274        6.0558677542       25.4510627106
  S         6.3704043137        1.2325854941       25.9468938465
  C         6.0750268741        2.1929941029       27.3896614659
  H         5.8148533102        4.3392409196       27.7447524845
  C         7.9174782728        2.3601067345       22.7652510247
  H         8.3144623278        5.9933913781       23.0334547504
  C         8.5506044903        4.3208503110       21.7326147513
  H         4.3635183903        5.0732233380       25.8639214873
  H         4.7866272318        6.7099198810       26.2950067370
  C         3.2115583400        6.4089914802       24.7780117785
  C         5.7740156082        1.5619532061       28.7667545371
  C         8.5413268608        2.9998945860       21.7200330437
  H         7.8642211504        1.2976393251       22.7887668502
  C         9.0088773345        4.7168633905       20.5054281128
  H         2.9567515963        5.6953595180       23.9751157189
  H         3.3404452428        7.3721523231       24.2480226783
  C         1.9354431062        6.5637117769       25.6305708262
  C         5.9671085462        0.1658678544       29.0481923244
  C         5.2385941224        2.4166448093       29.8694421251
  C         8.9808188379        2.3606435329       20.4264505351
  C         9.3613520193        3.6691611506       19.7115221832
  S         9.1891746057        6.2769597836       19.6610410485
  H         1.1767269594        6.4517692330       24.8625947481
  H         1.8291961561        7.5848002228       25.9567575337
  C         1.7179829800        5.4953366489       26.6976787502
  N         6.3887758909       -0.8523519805       28.1172169014
  C         5.7506365329       -0.3441025895       30.3296294949
  C         5.0238810901        1.8072802489       31.1203080778
  H         5.0085661258        3.4614205061       29.7548592864
  C         7.8224943451        1.5456717768       19.7728621547
  C        10.2168618883        1.4235093575       20.5389436461
  C         9.8398311261        4.0625154950       18.4770679683
  C         9.6613010848        5.3613943774       18.2458712236
  H         1.8761129376        4.5147344617       26.1867476222
  H         2.6354982622        5.5555340128       27.2720369159
  C         0.4150945672        5.6181771707       27.5094232165
  S         6.5084346912       -2.2169317939       28.9309143362
  N         5.9588761050       -1.7306697180       30.3752798901
  C         5.3327733426        0.3804554338       31.4458487252
  H         4.7002101004        2.4207353064       31.9023854381
  H         7.5573805902        0.7053830061       20.4061106757
  H         8.1934991002        1.0806297145       18.8406153395
  C         6.6007712267        2.4447969682       19.5784151468
  H        10.2768337513        0.7905710588       19.6177834047
  H         9.9442529787        0.7058056807       21.3563822138
  C        11.5190626443        2.1655026018       20.8798151069
  H         9.9884834640        3.1954804004       17.8462013395
  C         9.8836894267        6.0550806346       16.9279967047
  H        -0.3977204353        5.2864500178       26.8725659797
  H         0.2037075772        6.7062486442       27.6892809379
  C         0.3974350878        4.8049109891       28.7218797620
  C         5.2305526844       -0.2543732913       32.7574848314
  H         6.6318495691        3.1498942885       18.7175046369
  H         6.4760692938        2.9863889739       20.4896014054
  C         5.3283957319        1.5549577328       19.3242829690
  H        11.2177431862        2.9230949256       21.5959279084
  H        11.8479570224        2.6598918436       19.9681598656
  C        12.6836998924        1.3416481667       21.4063779360
  C         9.9545256873        7.4563454110       16.8053902047
  C        10.2480443631        5.2812304011       15.6820429621
  H        -0.5792571086        4.4490845344       28.7783850435
  H         0.9996296054        3.8797630878       28.6116977224
  C         0.8402814631        5.6145051114       29.9510666110
  H         5.6175841665       -1.2170550058       32.8408581094
  C         4.8894570058        0.2500227700       33.9772983962
  H         4.4393658258        2.1088394033       19.5530205033
  H         5.3784654430        0.7664026980       20.0594130004
  C         5.3160613983        1.0810537117       17.8096871599
  H        12.3392247912        0.7779315508       22.3077529361
  H        12.9575463965        0.6717244569       20.5770077694
  C        13.9348639065        2.2406389513       21.7821239834
  N         9.7879871588        8.4699325903       17.8304540441
  C        10.2242600736        8.0262352305       15.5476960642
  C        10.6108609778        5.8582644645       14.5040143760
  H        10.1561210596        4.2274049885       15.6936388539
  H        -0.1456892685        6.0505443697       30.3667858738
  H         1.3367802126        4.9477412632       30.7893304976
  H         1.6471034180        6.3470902911       29.7216351038
  S         4.4618335271        1.8678691263       34.3565186438
  C         5.0455831826       -0.7244251542       35.0773530349
  H         5.6478487273        1.8374383693       17.0835504196
  H         6.0243606952        0.2668803405       17.5794419683
  C         3.9317717683        0.4710568193       17.4247971588
  H        13.5392239151        3.1876479318       22.1364804481
  H        14.5191781623        2.5146468214       20.9432279599
  C        14.8681274364        1.5589430334       22.7731994941
  S        10.0257774804        9.9823844470       17.1442994989
  N        10.3229308828        9.4225818250       15.5872431583
  C        10.6455656904        7.3295025272       14.3942543306
  H        10.7677149339        5.2680363836       13.5794523881
  C         4.4200590746        1.1979115023       36.0495778292
  N         4.5407866805       -0.1792156827       36.1867520078
  O         5.2908754114       -1.9253386843       34.9569038276
  H         3.8614906515        0.2274750314       16.3738312903
  H         3.2530619098        1.3284478406       17.5401570587
  C         3.4136977134       -0.7924866399       18.1811289526
  H        14.2971124432        1.2193739700       23.6096661846
  H        15.3926259228        0.6621478449       22.4075569902
  C        15.9289657080        2.6168051695       23.2073243189
  C        10.8208084259        8.1314071066       13.2238932598
  S         3.7468539995        2.0521266274       37.4867800048
  C         4.5202897949       -0.8899840054       37.4743000071
  H         4.0987752946       -1.6626251092       18.0594966364
  H         3.4041854666       -0.6349952752       19.2503420994
  C         2.0270394674       -1.0921384469       17.6673105185
  H        15.5564461208        3.4071784001       23.9630727223
  H        16.0600564291        3.2754206938       22.4310286899
  C        17.2032269685        1.8811246481       23.5938702939
  H        10.4065589924        9.1212257550       13.3745217149
  C        11.4923086437        7.8979036759       12.0786646964
  H         3.7018355626       -0.6112778062       38.1037537835
  H         4.3596010746       -1.9442271975       37.3274464499
  C         5.8730057892       -0.8710207134       38.1570618267
  H         1.3866040424       -0.1877138206       17.5661560870
  H         1.6978652525       -1.7868568060       18.4149668134
  C         1.9751700628       -1.8124246189       16.3205471117
  H        17.6862826115        2.3308892036       24.4866474777
  H        16.9358665991        0.8644112247       23.9271640145
  C        18.1717555453        1.7566050981       22.4873332018
  S        12.1949436227        6.3896918540       11.5386103453
  C        11.5080888576        8.9617456788       11.0640579810
  H         5.8467894923       -0.0711592510       38.8435320658
  H         6.1124756432       -1.8428489205       38.6731867607
  H         6.5381868905       -0.7303713520       37.3054703549
  H         2.0855191974       -1.0982882789       15.5021660126
  H         1.0089466726       -2.2509504952       16.2789400929
  H         2.7892462037       -2.4812164151       16.0900367237
  H        19.0479981893        1.1651172219       22.7496612890
  H        18.4909834946        2.7620518516       22.2313738352
  H        17.8691198137        1.2990608790       21.6435434649
  C        12.2441330992        7.1072493742        9.9453243199
  N        11.9938446115        8.4620430732        9.9141225190
  O        11.3140152058       10.1282173601       11.3052845981
  S        12.8897188812        6.2606660492        8.5929798996
  C        12.2316765590        9.3602089878        8.7748431730
  H        12.5009732488       10.3713366549        9.1606872824
  H        13.0854909324        8.9938449623        8.2899548555
  C        10.9034417974        9.5762794329        7.9927232918
  H        10.4549949284        8.6156694757        7.8569250597
  H        10.2257790020       10.2732137282        8.4461301937
  H        11.0877527490       10.0176078098        7.0112806801
  H        -3.5857804787       14.7290896167       16.2867769539
  C        -3.4948568372       13.6910069633       16.1564367897
  H        -4.4284460933       13.1809942257       16.3335584841
  C        -2.2977615126       13.4104895359       17.1667197862
  C        -3.0247400063       13.3016842454       14.7464506321
  C        -2.5809564954       13.7889513982       18.6429167840
  H        -1.9309696242       12.4307360018       17.0786140368
  H        -1.5920180265       14.1088707824       16.7827791989
  H        -3.4832172933       13.9978677384       13.9922710580
  H        -2.0012483553       13.1966452439       14.6618369188
  H        -3.4468125183       12.3365536486       14.4600294143
  C        -1.5876402830       13.1450414826       19.6748939229
  H        -3.5758498015       13.4416460871       18.8560606371
  H        -2.5141019758       14.8850832374       18.7215514338
  C        -2.0823259676       13.3184270261       21.1388934066
  H        -1.5866727528       12.1218823326       19.5874682057
  H        -0.5497149462       13.4498190962       19.6274438556
  C        -1.2576954332       12.8368556429       22.2225984250
  H        -2.9665637670       12.7420642897       21.2103379643
  H        -2.3227672615       14.3961964346       21.1454411814
  C        -0.0567397664       13.6763399086       22.5210266758
  H        -1.8203308919       12.6318275778       23.1300909947
  H        -0.9280814970       11.8882910079       21.7851619410
  C         1.1505095786       12.9405074622       23.2440550342
  H         0.2381879168       14.2025658484       21.5888824190
  H        -0.2827002304       14.4308867368       23.2074650230
  C         1.4572563170       11.5409242792       22.5515899237
  C         0.6880782728       12.2183294349       24.4836466977
  C         2.4222275074       13.8971613093       23.4599089653
  C         1.1866200098       10.4409393881       23.3381449378
  C         1.8857683292       11.2461664657       21.2718020721
  C         0.7209917330       10.8606272404       24.5891464647
  C         0.2730304516       12.9317987279       25.6025330698
  H         2.6396353302       14.5551154585       22.6471409377
  H         2.1607456158       14.6146466474       24.2523520497
  C         3.6243898585       13.0579506365       23.7765866409
  S         1.5774301587        8.9582581766       22.5006536232
  C         1.9989506031        9.8807509054       21.0910202980
  H         2.2548237834       11.9761426855       20.6288785968
  C         0.2708039379       10.2831700029       25.7705533045
  H         0.3631367177       13.9874525117       25.5255248637
  C        -0.2068956741       12.4058310960       26.7744237161
  H         4.0000347192       12.4670289659       22.9567047215
  H         3.5225542771       12.5285091885       24.7210992102
  C         4.7863360533       14.1063255155       23.9182591975
  C         2.4340403243        9.2577684283       19.7885058398
  C        -0.1721291189       11.0387339034       26.9365805950
  H         0.2090944224        9.1890090392       25.8992581225
  C        -0.6409941953       12.8675282894       27.9638685519
  H         5.4794794390       13.8121281498       24.6502997829
  H         4.5327478798       15.1403969987       24.2514348603
  C         5.6542717461       14.2487750396       22.5892508308
  C         2.3977723177        7.8810329959       19.4880682010
  C         2.8282811978       10.1068368140       18.6530203349
  C        -0.6177221369       10.4208814817       28.1222812772
  C        -0.8510627871       11.8312659883       28.7988006169
  S        -0.6898401043       14.3753294957       28.8519101661
  H         6.0316823117       15.2478183915       22.5140325975
  H         4.9591440282       14.2749742295       21.6802016502
  C         6.7435943822       13.1556406777       22.3963099772
  N         2.2278287054        6.8423882139       20.4293694224
  C         2.6506093949        7.3317133312       18.2488748255
  C         3.0696416511        9.5939499844       17.3971508228
  H         3.0857126729       11.1340368971       18.8036498260
  C         0.4573080949        9.5329669446       28.7472842258
  C        -1.9160821766        9.7593291243       27.8825773386
  C        -1.3674060570       12.1930017603       30.0479505541
  C        -1.3251767024       13.5477199865       30.2487420986
  H         7.2728762836       12.9909734263       23.3494760439
  H         6.3240026238       12.1367351908       22.1395126839
  C         7.6195718156       13.3799333717       21.2097209075
  S         2.3572153519        5.3991831989       19.7065470161
  N         2.7625789367        5.9055685882       18.2244198249
  C         2.9745877594        8.1367826778       17.1308348928
  H         3.4257451367       10.3118481498       16.5998678162
  H         0.9721948313        8.9845348445       27.9210361486
  H        -0.0167860482        8.7876651279       29.3237071320
  C         1.4191553295       10.2043355575       29.6950835898
  H        -1.7992284241        8.7926104516       27.2247216124
  H        -2.3333079259        9.2953440756       28.7882233540
  C        -3.0018358398       10.6379522997       27.1971848261
  H        -1.7573974903       11.3769583705       30.6854683273
  C        -1.6180142615       14.1778526465       31.5650194398
  H         8.1836948886       12.4286986051       21.1622445764
  H         8.3801301805       14.0907780373       21.3946763412
  C         6.9084938443       13.5458312594       19.8041021545
  C         3.1642179033        7.4929031995       15.8641862788
  H         1.8920647190       11.0400463931       29.1916261540
  H         0.8439616561       10.6138034602       30.5782474261
  C         2.5632452254        9.2305850435       30.1658054234
  H        -2.6476760642       10.9241126965       26.2295990258
  H        -3.2145348378       11.5254384462       27.8158926597
  C        -4.2800431299        9.8797749129       27.0363735464
  C        -1.4986564033       15.5650313293       31.7344336121
  C        -1.6144396981       13.4149541926       32.8658630419
  H         6.0677456089       12.8017991630       19.6772755220
  H         6.4496834791       14.5341946151       19.8915152163
  C         7.7733260565       13.5187528216       18.5792572627
  H         2.7611588956        6.4160547139       15.8434825475
  C         3.4423238385        7.9262301421       14.5956064017
  H         2.7546727501        8.5378589979       29.3607391333
  H         2.1837399054        8.5058564185       30.9878292752
  C         3.8013759692        9.9076162634       30.7061085574
  H        -4.0407475443        9.0691093332       26.2621139843
  H        -4.5006238960        9.6335726985       28.0207308489
  C        -5.4265089738       10.7036118820       26.5352278510
  N        -1.1413546383       16.4398689756       30.7150850496
  C        -1.7429386146       16.1995261215       32.9415857824
  C        -1.9283170745       13.9941010578       34.0482319094
  H        -1.5356615769       12.3527318792       32.9357786197
  H         7.1716776859       13.6426664932       17.7224460968
  H         8.4517281146       14.2576280198       18.6527567981
  H         8.2708454109       12.5621599766       18.5302580119
  S         3.8812397721        9.4936310151       14.1170993244
  C         3.5021095205        6.8751507252       13.5441723390
  H         4.3786818463       10.3637663311       29.8833569033
  H         3.4754624008       10.7011562141       31.3474510810
  C         4.7332646410        9.0965123215       31.6238278178
  H        -5.1314439925       11.2806288740       25.6758059410
  H        -5.6456709976       11.4330189834       27.3492963367
  C        -6.5831155744        9.8888670167       26.0770362672
  S        -1.2902402079       17.9571268891       31.2965414845
  N        -1.7626040112       17.6370343937       32.8266064383
  C        -2.0952639223       15.4525711158       34.0619201426
  H        -1.8679741173       13.4146796868       34.9420447264
  C         4.0537627014        8.7731116833       12.4750605736
  N         3.7925311210        7.4439489732       12.3751691349
  O         3.3232655416        5.6994543022       13.7305426231
  H         4.1970284567        8.3972368515       32.3196043666
  H         5.4101998795        9.7023194414       32.1167559586
  C         5.6423615743        8.1547201069       30.6986446737
  H        -6.4080990974        9.3229873402       25.0846349429
  H        -6.7993359058        9.2259306927       26.8751934688
  C        -7.7229074347       10.7898397909       25.6394011961
  C        -2.4369862183       16.2052217765       35.2132722671
  S         4.6169612893        9.6677140715       11.0893674458
  C         3.5584329307        6.7779229822       11.0506655733
  H         5.2320562349        8.0725637115       29.6516231207
  H         6.5479789736        8.7594822233       30.4463436295
  C         6.0624318651        6.8061277128       31.2646866200
  H        -7.2849993692       11.3149224259       24.8226102901
  H        -7.8735191134       11.5411116470       26.4234340466
  C        -8.9405683553        9.9438214413       25.1786074130
  H        -2.5119787298       17.2956420899       35.0394501595
  C        -2.8105416345       15.8258725781       36.4571509158
  H         4.2170387010        7.0898435953       10.2050219821
  H         3.7488535670        5.6985567917       11.1957662060
  C         2.0700475946        6.7826717724       10.7882300094
  H         6.3020544433        6.9031338283       32.3070519242
  H         7.0035354051        6.4553569012       30.8781605943
  C         4.9180210442        5.8056235334       31.1676978528
  H        -9.2286907777       10.2728039727       24.1970444183
  H        -8.6821488853        8.9290948900       25.0831048651
  C       -10.1397057864       10.2409278600       26.0471145817
  S        -3.1036416110       14.2003329608       37.0408473749
  C        -2.9744789045       16.8718369330       37.4849880779
  H         1.8819552868        6.3747443224        9.8094770767
  H         1.5598002384        6.2111235847       11.5830421016
  H         1.6507701000        7.7479551162       10.7408874524
  H         4.3987154830        5.9170353851       30.1943217867
  H         4.2086626248        6.0089708225       31.9658964263
  H         5.3491123787        4.8660497380       31.2469019702
  H       -10.9248943963        9.5494127895       25.8644015270
  H       -10.4767009871       11.2165355737       25.7858352724
  H       -10.0331852971       10.2522099054       27.1249177201
  C        -3.4446724194       14.9434775859       38.5890022889
  N        -3.4184496605       16.3063380659       38.5902342779
  O        -2.8534601872       18.0271450530       37.2211887189
  S        -4.2671306792       14.1744238086       40.0042068013
  C        -3.6862519374       17.1770451393       39.7368006585
  H        -4.1479540590       18.1044056719       39.3467131457
  H        -4.5728034929       16.7486348003       40.3434276061
  C        -2.4631502361       17.6064648921       40.5245454072
  H        -1.5425855928       17.0933563685       40.3398809001
  H        -2.3433153936       18.6815028657       40.3619860130
  H        -2.6801465458       17.4421398917       41.5565137030
