352
 i =    63600, time =    63600.000, E =        24.8828576273
  H         9.9589534769        4.4702948138       31.7418107346
  C        10.2057845302        5.4190297209       32.1200740926
  H         9.2358056360        5.7114365920       32.6787674964
  C        10.5955909859        6.4028581487       31.0578245493
  C        11.2032801316        5.2596503025       33.2261514018
  C        11.3272146521        5.7020754175       29.8859147422
  H         9.8115253977        7.0354429347       30.6826332868
  H        11.3094582835        7.1564922714       31.4797438214
  H        10.6041635745        4.7240961769       34.0170358189
  H        12.0720334861        4.6228617376       33.0141799513
  H        11.4938365352        6.2544822013       33.6525968800
  C        10.2685841283        5.0012936845       28.9787772033
  H        12.0714626606        4.9552912773       30.1353046649
  H        11.8727991861        6.3895784962       29.2427572225
  C        10.4322624823        5.5808986559       27.5753431939
  H        10.4700335954        3.9432401331       29.0657597748
  H         9.2812345489        5.1996716419       29.2487762744
  C         9.5053385749        4.8871833563       26.5928073903
  H        11.4296577919        5.2634614191       27.3414633439
  H        10.3004767063        6.6439340784       27.5524264691
  C         8.3117270322        5.7269753510       26.1194227634
  H        10.0466229305        4.5418327797       25.7471670097
  H         9.1257385734        4.0844219478       27.1029062958
  C         7.1388961630        5.0091468331       25.3088585715
  H         7.9551555314        6.1997308933       27.0205939510
  H         8.7235476285        6.6313613745       25.5851963874
  C         6.8701383057        3.6197624730       26.0050318360
  C         7.5029576427        4.2982202273       24.0489441131
  C         5.9214780685        5.8417352559       24.9164956553
  C         7.1350238348        2.5135664030       25.1925054166
  C         6.3693563211        3.1912664905       27.2076337531
  C         7.5133752072        2.9594584093       23.9201418842
  C         7.9723745249        5.0083744300       22.9472096954
  H         5.3553200276        5.4515900675       24.0653828870
  H         6.3036477106        6.7846111738       24.5426504904
  C         5.0313206036        6.1958998146       26.0594524389
  S         6.6344028417        0.9869063636       25.8948226622
  C         6.1908479629        1.8198153435       27.3369912246
  H         6.2443268582        3.9208258601       27.9995125214
  C         7.8695534931        2.3635979633       22.7307833280
  H         8.0559397258        6.0946272878       22.9760599481
  C         8.4149485312        4.4219489640       21.8184135729
  H         5.1408745121        5.5456157068       26.9181275639
  H         5.3693812848        7.1395507868       26.3838704906
  C         3.5693462924        6.1255908130       25.5752826917
  C         5.7784800061        1.1107684344       28.5772338441
  C         8.4140126561        3.0384944906       21.6383915548
  H         7.9411167479        1.2642846383       22.6105494211
  C         8.8711656499        4.7687887513       20.5775272641
  H         3.2843919809        5.3397082828       24.9681293959
  H         3.3629443045        6.9266783007       24.8750306325
  C         2.6397345729        6.2813513864       26.7974997279
  C         5.7359241743       -0.2662849266       28.8552654852
  C         5.2927793059        1.9333625164       29.7125244110
  C         8.8208518806        2.3342320391       20.3963504074
  C         9.1499047802        3.6575971819       19.7341444619
  S         9.3317715584        6.2456161623       19.8106026166
  H         1.7501218087        6.8877843932       26.5062786096
  H         3.0242997903        6.8050731986       27.6496982396
  C         2.2016684335        4.9348510607       27.2083806500
  N         6.1312164313       -1.2296386308       27.9419534292
  C         5.5475847089       -0.7932486684       30.1272255534
  C         4.9470621499        1.4512919369       30.9793773184
  H         5.1762366040        2.9338840330       29.5205963151
  C         7.5285874020        1.7057023026       19.7558825362
  C        10.1296803418        1.4381153541       20.5665045714
  C         9.6459319122        4.0374376975       18.4785514301
  C         9.7825433326        5.4389435062       18.3228258036
  H         1.5065546354        4.5590115853       26.4592794478
  H         3.1377398780        4.3826521435       27.2554135316
  C         1.3985455034        4.9340024484       28.4999273203
  S         6.1404990859       -2.6616471650       28.5291263241
  N         5.6277800506       -2.2277159589       30.0406534041
  C         5.1323119547       -0.0362073550       31.2448673119
  H         4.7361594009        2.1487608395       31.7753872463
  H         7.1318241107        0.9085387906       20.3731808089
  H         7.7255904404        1.1879733916       18.8535945471
  C         6.4247109172        2.8269607087       19.5967163844
  H        10.1968108163        0.7413442823       19.7898158551
  H         9.8848235506        0.7743202599       21.4523935799
  C        11.5307140410        2.1476685077       20.7267093115
  H         9.7868465751        3.3450243698       17.6814506199
  C         9.9699855807        6.2236843268       17.0834641098
  H         0.6694514604        4.1043567055       28.4674174150
  H         0.7840385775        5.8043660269       28.3828945074
  C         2.2894244547        5.0365341437       29.7986699001
  C         4.8715219332       -0.7514370399       32.4672180974
  H         6.7444740583        3.5532022687       18.8189346765
  H         6.1907842119        3.1713665599       20.5463540014
  C         5.0300328590        2.2642693228       19.1249941431
  H        11.3611984818        3.0072304815       21.3474088890
  H        11.8838539990        2.4558919549       19.7156555910
  C        12.5198779715        1.1909689073       21.3246704825
  C         9.9940488941        7.6061228647       17.0392976126
  C        10.2485911506        5.5271973736       15.8382382166
  H         3.1078893398        4.3763114395       29.6535562104
  H         2.8678843003        5.9505323411       29.8503493839
  C         1.5134946592        4.7161320404       31.1410288125
  H         5.0331126976       -1.8167431249       32.4277589812
  C         4.5677606801       -0.3046841052       33.7051168293
  H         4.3592986361        3.1349216723       19.1955119135
  H         4.6515709268        1.6518677212       19.9442760010
  C         4.9226908744        1.5767820656       17.7726559825
  H        12.0914711729        0.6262192593       22.1562551383
  H        12.8504639689        0.4710555404       20.6228623036
  C        13.8142209618        1.7883099595       21.6882580283
  N         9.7936693831        8.5067887259       18.0659291854
  C        10.2988191389        8.2525980986       15.8724084519
  C        10.6564156567        6.1435720738       14.7408602398
  H        10.2745408236        4.4675896221       15.9146190267
  H         1.0059225633        5.5684689713       31.5722466343
  H         0.7532641785        4.0491439526       30.9054838991
  H         2.2238627578        4.3124955825       31.8719065388
  S         4.1926688135        1.3497869966       34.2263326365
  C         4.5172681744       -1.3069832711       34.8046426226
  H         4.9841912803        2.3145558607       16.9475238125
  H         5.7556753299        0.8219094604       17.7371139607
  C         3.5000497864        0.9775439345       17.5407736351
  H        14.0816889355        2.5461930013       21.0099612798
  H        14.6232088313        1.0882303104       21.5289193330
  C        13.8803386523        2.2672583963       23.1222807060
  S        10.0446992434       10.0452319693       17.5312354285
  N        10.4362464985        9.6707729177       15.9955908805
  C        10.6121107583        7.6085573216       14.6696673365
  H        10.9666713673        5.5928385698       13.8154051159
  C         4.0228096703        0.6912407567       35.8180088810
  N         4.0413732647       -0.6566978101       35.9013756513
  O         4.8200145085       -2.5327592563       34.6810025889
  H         3.1373668777        1.2107495570       16.5377158764
  H         2.7428786390        1.3595941971       18.1960415232
  C         3.4753345289       -0.5424866933       17.8824102530
  H        13.1108485329        3.0191683551       23.3210078440
  H        13.7200029525        1.4245882418       23.7988876412
  C        15.1254159898        2.9058334139       23.6719844103
  C        11.0003452310        8.4328818101       13.5791741008
  S         3.4317859252        1.4697798582       37.3135053764
  C         3.9814116382       -1.4055971404       37.2147109963
  H         4.1935641232       -0.9620687545       17.2121727612
  H         3.8657974151       -0.7089073131       18.8481027990
  C         2.0658917702       -1.0257725533       17.7984989383
  H        14.9368455155        3.2817748490       24.7250229707
  H        15.4238203330        3.7753997647       23.0777871204
  C        16.3153891208        1.9469213960       23.9030538393
  H        10.7282228561        9.4531074011       13.5636932129
  C        11.5856490261        8.1678741599       12.3329930669
  H         3.3948711989       -0.9371537032       38.0633338323
  H         3.5053650208       -2.3421965842       37.0811893077
  C         5.4706777760       -1.5159581121       37.6466109962
  H         1.4804993509       -0.6917306794       16.9222628674
  H         1.4669857405       -0.7234068877       18.7236195570
  C         1.9422894288       -2.5749028826       17.6554136999
  H        16.7601130046        2.1963069717       24.8635547261
  H        15.9932918854        0.9172395707       23.8124196038
  C        17.4433831854        2.0578452783       22.8775572810
  S        12.1112242435        6.5913454658       11.7147304724
  C        11.6767413581        9.3146579746       11.3459197027
  H         5.8425590326       -1.1010919492       38.4828353235
  H         5.6230381249       -2.5850329859       37.7096874280
  H         6.1740547682       -1.2825148284       36.8450064345
  H         1.5074533541       -3.0080057426       18.4837212860
  H         2.9118025273       -3.0090452735       17.3866865058
  H         1.3564353900       -2.9057811077       16.8642492710
  H        18.3689586481        2.0986333510       23.4533160284
  H        17.3470458441        2.9031050920       22.2441451873
  H        17.6507285960        1.2451306975       22.1671025987
  C        12.4161808637        7.4467893467       10.1995993704
  N        12.1080834867        8.7752240573       10.1728618701
  O        11.4309537376       10.4842195468       11.6092301294
  S        12.9355176841        6.6439317614        8.7080780850
  C        12.0216694099        9.5933497655        8.9831491200
  H        12.2665909830       10.6492743123        9.3542108783
  H        12.8278313206        9.4134511703        8.3037235193
  C        10.6406629005        9.4621837267        8.2260037517
  H         9.7877730305        9.3485385253        8.8938354657
  H        10.4127066379       10.3616104983        7.6311016138
  H        10.7993122226        8.6723334835        7.4658814270
  H        -2.6776578072       15.0671284875       16.4457680602
  C        -2.8474903819       13.9883133395       16.4665738916
  H        -3.9406327476       13.8881596303       16.5305655460
  C        -2.1692984810       13.1023024648       17.4534242056
  C        -2.6011379955       13.4549981522       15.0877794765
  C        -2.3497182771       13.6927392903       18.8167064282
  H        -2.6891807011       12.1917272288       17.3616883999
  H        -1.1450182021       13.0141474637       17.1646720798
  H        -2.4345886773       14.3150588736       14.4191217169
  H        -1.6820757715       12.8488538008       14.9793153626
  H        -3.5157984529       12.9803718644       14.7428983017
  C        -1.6593058713       12.7117961497       19.7916709474
  H        -3.4250682873       13.7951537207       19.0913022416
  H        -1.8920229473       14.7055383002       18.7933523169
  C        -2.1353701205       13.2088894824       21.2092815012
  H        -2.0115482120       11.7066051435       19.5714463053
  H        -0.5952966888       12.9521614130       19.6359473213
  C        -1.2379917116       12.5767712982       22.3139717284
  H        -3.1239576698       12.7456296577       21.2749181356
  H        -2.2482329270       14.2846712837       21.2590177480
  C        -0.0073404380       13.4787837481       22.6334402963
  H        -1.7450860385       12.4506926086       23.2146890169
  H        -0.9304176401       11.5746258741       21.9650532148
  C         1.1652771155       12.6612018676       23.2713618323
  H         0.2780071324       14.0446931125       21.7213499094
  H        -0.3069563829       14.3837534637       23.1932754189
  C         1.6067836920       11.3009804825       22.6061824024
  C         0.8060321021       11.9412239544       24.5258575990
  C         2.4328682909       13.5544091450       23.4226824100
  C         1.4473171599       10.2282935852       23.4600506271
  C         2.1527937308       10.9872004855       21.3598292695
  C         0.8189120392       10.5660101306       24.6614262833
  C         0.2105373749       12.5842750874       25.6357612458
  H         2.7498361510       13.9364614792       22.4395303626
  H         2.2867857980       14.3940439974       23.9459564221
  C         3.6794026342       12.8636981631       23.9797948032
  S         1.9254102807        8.7303696105       22.6462982399
  C         2.3723618598        9.6567670040       21.2119486067
  H         2.3784686140       11.8526821477       20.6508330221
  C         0.4662215416        9.9346853185       25.8520967042
  H         0.0808816973       13.6806950710       25.5485003845
  C        -0.1934145282       11.9977918349       26.8108857957
  H         3.9854105137       11.9862886310       23.4120460586
  H         3.4222083869       12.3592588753       24.9278792273
  C         4.9777932371       13.8017794356       24.2030263035
  C         2.6817601764        9.0464714254       19.8987221437
  C        -0.0828882209       10.6350883003       26.9534919285
  H         0.6362008401        8.8597471779       25.9275991611
  C        -0.5775734098       12.3996216785       28.0490157998
  H         5.7466699582       13.4148715443       24.9608405131
  H         4.6523036182       14.7598685473       24.6633961129
  C         5.7379810262       14.0880621736       22.8949379676
  C         2.6319941167        7.6380273491       19.5989942782
  C         3.1854285027        9.9086188096       18.8250085140
  C        -0.4642260195        9.8990656955       28.1689124277
  C        -0.7848389049       11.2728975459       28.8161279163
  S        -0.9517117319       13.8809734886       28.8037290616
  H         6.5342501783       14.8269775354       23.1779584887
  H         5.0340573495       14.5000166624       22.1933431588
  C         6.2943094510       12.7507097961       22.2754033826
  N         2.2390872517        6.5994262031       20.5080816242
  C         2.7815202595        7.1706380289       18.3165432353
  C         3.4430978760        9.3648809210       17.5471585206
  H         3.3080465490       10.9992240049       18.9601427991
  C         0.7202824621        9.1696859607       28.8775134815
  C        -1.7545973448        8.9931958423       27.9900359541
  C        -1.1791735677       11.6086737991       30.0685133742
  C        -1.3455820363       12.9936632213       30.2159622050
  H         6.8280466983       12.0070902514       22.8496405657
  H         5.3896168270       12.3142964547       21.9099766816
  C         7.1009792850       13.0689984274       20.9954225545
  S         2.3760660021        5.1699680366       19.7212686771
  N         2.7299701420        5.7781252972       18.2591337518
  C         3.2740664772        7.9061549144       17.2504726685
  H         3.7381903005        9.9889053098       16.7510098074
  H         1.2219406375        8.5788363567       28.1069012324
  H         0.2932444087        8.4934463980       29.7231956964
  C         1.8402448413        9.9723508184       29.4579443589
  H        -1.5885778065        8.4353815564       27.0458646318
  H        -1.8079562921        8.3018217051       28.8463800954
  C        -3.0949393671        9.7836454023       27.8156971669
  H        -1.2169809948       10.8508453839       30.7852108686
  C        -1.6365049347       13.7629352550       31.4876121743
  H         7.8002680537       12.2119624142       20.7798133348
  H         7.7519091840       13.9114549152       21.2858742605
  C         6.1201361757       13.3472932120       19.7887574893
  C         3.4486018394        7.3341142366       15.9001042328
  H         2.1838006123       10.6233333823       28.7069444839
  H         1.5219405679       10.7428019143       30.1293982008
  C         2.8457496690        9.1344688630       30.2929819150
  H        -2.9794132258       10.6791806648       27.2224644633
  H        -3.4617626811       10.1294749732       28.7670574764
  C        -4.2582575887        8.9457661228       27.2695482945
  C        -1.7021550136       15.1867797370       31.6618052864
  C        -1.7953375995       12.8997990017       32.6986032575
  H         5.4359011342       12.4993849071       19.6018312286
  H         5.4827019394       14.2091238445       19.9997001260
  C         6.7150976869       13.5851569880       18.3852861450
  H         3.0544584779        6.2891210851       15.9322422428
  C         3.7391119020        7.7385102177       14.6229121000
  H         3.2895808373        8.4834532798       29.5523081554
  H         2.3463352585        8.5004251509       31.0219560191
  C         4.0249106685        9.8946361018       30.9581256299
  H        -3.9148747438        8.6082649214       26.2943367100
  H        -4.4896061721        8.0346816350       27.8269669951
  C        -5.4838574509        9.9006081265       27.1367898396
  N        -1.6410399891       16.0487867587       30.6524236561
  C        -2.0803265339       15.7355702945       32.8978955722
  C        -2.0311549664       13.4788564125       33.8691632688
  H        -1.7956041995       11.8600252905       32.6414406895
  H         6.7461305599       14.5854920358       18.1087194695
  H         7.7042089598       13.0571733725       18.3246633554
  H         6.0833254273       13.0836787237       17.6145170274
  S         4.1251955835        9.3112285584       14.0693796384
  C         3.7968923055        6.6768640644       13.6206084434
  H         3.9696298252       10.9107661445       30.5395951240
  H         3.8095474756        9.9886894350       32.0409146447
  C         5.3757097148        9.2403838320       30.7208374258
  H        -5.1993046445       10.6527899394       26.3837941265
  H        -5.8087537840       10.3252778800       28.0734219017
  C        -6.7029216095        9.0155094767       26.6623018939
  S        -1.8326499008       17.5820883111       31.2817997453
  N        -2.2170448941       17.1480384984       32.8162922979
  C        -2.3062317562       14.9499747735       34.0341064554
  H        -2.2126090214       12.7460434223       34.6779085409
  C         4.3179032966        8.5913301957       12.4757462352
  N         4.2425422520        7.2334133246       12.4608411171
  O         3.6125236359        5.4893757553       13.8222053317
  H         6.2391072017        9.8001203758       31.1179292578
  H         5.6806393441        9.2086098759       29.6437601917
  C         5.3797995066        7.7207015178       31.2036840793
  H        -6.4810961386        8.0938840386       26.2558716084
  H        -7.2505958058        8.7612076970       27.6132276616
  C        -7.5041639124        9.8314024905       25.6692462472
  C        -2.8147181044       15.6358559880       35.1984364232
  S         4.6900615841        9.4387267856       10.9954537999
  C         4.1926562636        6.4841770814       11.2023461505
  H         5.0646665989        7.5491513758       32.2287394350
  H         4.7579226704        7.1002652086       30.6855044961
  C         6.6842257835        7.0408505668       31.2240457979
  H        -6.9634000396        9.8286779426       24.7457298142
  H        -7.5414202919       10.8576148812       25.9701736125
  C        -8.9550177422        9.3334719634       25.3861831537
  H        -2.7444306318       16.7150481212       35.1727835676
  C        -3.3502321969       15.1806266196       36.4326372247
  H         4.9102244897        6.9629718400       10.4964288285
  H         4.6652359120        5.5861887170       11.2017189798
  C         2.7535458603        6.3352388973       10.6349649718
  H         7.0615424912        6.9626003776       32.3235637288
  H         7.5135927475        7.5224284417       30.6633998612
  C         6.5820530389        5.5809359136       30.7576394909
  H        -9.1859003116        9.7098422572       24.4521415662
  H        -8.8684785074        8.2449703261       25.3592918888
  C       -10.0024967471        9.6747658039       26.3487151801
  S        -3.8609114973       13.5435185673       36.9462819392
  C        -3.5840563997       16.1332307135       37.5344460910
  H         2.3272053486        5.3196993887       10.7488116467
  H         2.1486126274        6.9958956263       11.1428168901
  H         2.7321934518        6.6518920918        9.5485402855
  H         6.2290616204        5.5705499244       29.7202061925
  H         5.8607289636        5.1780936501       31.4697577860
  H         7.4874843164        4.9841479185       30.8058903804
  H       -10.7752307982        8.9416450261       26.4771525174
  H       -10.6500062055       10.5553048043       26.1600526980
  H        -9.5609325455        9.9307689067       27.3406501774
  C        -4.1949894450       14.2215121984       38.5477758864
  N        -4.0500171464       15.5722466809       38.6324835176
  O        -3.3275263232       17.3779064083       37.4051273886
  S        -4.7895222779       13.3879371558       39.9401118061
  C        -4.3247158819       16.4427652113       39.7458559001
  H        -4.5003119392       17.4580824716       39.3928689510
  H        -5.2092785073       16.0062539036       40.3336370377
  C        -3.0701324764       16.5092681593       40.5968444057
  H        -2.1920007200       16.6560043226       39.9685401331
  H        -3.1435589532       17.4012069605       41.3031937435
  H        -3.0512284050       15.5920288376       41.2981052730
