352
 i =    20600, time =    20600.000, E =        24.7998006255
  H        11.6991691929        7.1034191625       31.9761835254
  C        11.4261284695        6.0318230113       32.0459709777
  H        12.3377878941        5.4889920784       31.9338573963
  C        10.3940263400        5.7488248412       30.8894527952
  C        10.6341277625        5.8147813398       33.3228931248
  C        11.1186613485        5.8159979354       29.5580459638
  H         9.8174758186        4.8310959368       31.0860499270
  H         9.7086871904        6.5916995768       31.0067653173
  H         9.9809465480        6.6876915125       33.3417638763
  H        10.1313465160        4.8278117017       33.4394269989
  H        11.2754215746        5.8717817086       34.2198570282
  C        10.0247589014        5.6860252907       28.4047771674
  H        11.7431846511        4.9439656614       29.6610815554
  H        11.7470749314        6.7184962510       29.5153917577
  C        10.5095987538        5.7122125595       26.9802332531
  H         9.4485806844        4.7696281940       28.4855107125
  H         9.3834403285        6.5088073210       28.5362780325
  C         9.5585316758        4.9775075880       25.9896244383
  H        11.5360281833        5.3648941619       26.9676142203
  H        10.4322249363        6.7162444281       26.6457833249
  C         8.3133339376        5.8543500427       25.8004791353
  H        10.0986540627        4.6756511053       25.0977565760
  H         9.1719334098        4.1008558834       26.4804689653
  C         7.1438252677        5.1076849331       25.1156584215
  H         7.9274362707        6.3474167606       26.6333354062
  H         8.6723686482        6.6628182963       25.1604696859
  C         6.7943767754        3.7741546877       25.8080242441
  C         7.6290968111        4.3678593234       23.9217681799
  C         5.9454067056        5.9944276169       24.8947310765
  C         7.2123973854        2.6506834274       25.1100450556
  C         6.1905986024        3.4356247660       27.0388734208
  C         7.6856296248        3.0317481778       23.8836339281
  C         8.0190657756        5.0574116740       22.7810246339
  H         6.1985008704        6.6984805114       24.0569160630
  H         5.7602840247        6.5346072209       25.8760998918
  C         4.6159432005        5.3034592952       24.5371077392
  S         6.8501128422        1.1228495328       25.8436856419
  C         6.1500691845        2.0798426229       27.2025614345
  H         5.9748596657        4.2078195778       27.8082176050
  C         8.1496022457        2.3687330853       22.7686935571
  H         8.1158949688        6.0745189259       22.7347843660
  C         8.5461377247        4.4363543175       21.7058497520
  H         4.8110331858        4.6963164109       23.6712524156
  H         4.3042076243        4.6107811636       25.2931702558
  C         3.4626647446        6.2287447960       24.3285950250
  C         5.7336568800        1.4823352916       28.5013758752
  C         8.5832475610        3.0775804508       21.6014898814
  H         8.3155100885        1.3006229972       22.8147409472
  C         9.0560614486        4.8081235644       20.4878158667
  H         2.7520330283        5.7825359048       23.5768769060
  H         3.8909433603        7.1107867800       23.8941413364
  C         2.6806708998        6.4882327159       25.6715730715
  C         5.7903281734        0.1091855606       28.7495942893
  C         5.3754500475        2.3324944625       29.6159813036
  C         9.0799732667        2.3898999828       20.3477516865
  C         9.3996563246        3.7703953280       19.6645084350
  S         9.3596952851        6.2833117216       19.7461713023
  H         2.0494552413        7.3625450109       25.5393957795
  H         3.3591819897        6.7476718616       26.4687230230
  C         1.8991548714        5.2483066689       26.3090807231
  N         6.1688931266       -0.8502833692       27.8399377062
  C         5.5267574180       -0.4072699324       30.0228070622
  C         5.1023967354        1.8294563224       30.8846611895
  H         5.3520898802        3.4103991311       29.5217731869
  C         7.9963257538        1.6987315060       19.4853679704
  C        10.2762242202        1.4310847358       20.4382710268
  C         9.8472852497        4.1693879456       18.3798944982
  C         9.8627469540        5.5404123341       18.2354931378
  H         1.2249738393        5.0760472312       25.5165079236
  H         2.5668266812        4.4937191486       26.6097808550
  C         1.1585787333        5.5827205529       27.5835775059
  S         6.1402649778       -2.3477932408       28.6216747776
  N         5.7307748606       -1.7996774081       30.1052827049
  C         5.1338322084        0.3212070718       31.1633589878
  H         4.7643835931        2.5229257888       31.6477044650
  H         7.7738540263        0.8032950195       20.0149863132
  H         8.4788822118        1.3786492104       18.5832015736
  C         6.7046837984        2.4968171722       19.0550682482
  H        10.4740962012        0.9595202840       19.4663961040
  H         9.9864656968        0.6518316727       21.1279985234
  C        11.5217032946        2.1619595008       20.9894941377
  H         9.9770272846        3.4018500176       17.6216103844
  C        10.2141027413        6.2561366992       16.9863612876
  H         0.7079581033        4.7080517061       27.9366186415
  H         0.5184994238        6.4372256358       27.6347095533
  C         1.9894402033        5.9173766597       28.8006595048
  C         5.0650320389       -0.3665975939       32.4853807839
  H         6.9986668455        3.4216592546       18.6157226885
  H         6.1978937300        2.8959974904       19.9519203617
  C         5.6940716127        1.7301415847       18.2523181139
  H        11.4208045449        2.1459687340       22.0730971958
  H        11.6935514634        3.2067660642       20.7528431583
  C        12.8257318295        1.4467089601       20.5731127551
  C        10.2432558369        7.6769691869       16.8791517939
  C        10.4859905705        5.5639504231       15.7054979592
  H         2.6544320343        5.0892236988       28.9847486799
  H         2.5256577734        6.9150262397       28.6808045104
  C         1.0913358691        5.9270270970       30.0446172032
  H         5.2133931599       -1.4001306497       32.4272961383
  C         4.7216673523        0.0934383748       33.7100467711
  H         5.3017298509        0.9166877777       18.9100566914
  H         6.1733223954        1.1002778513       17.4910550092
  C         4.6005843719        2.6819519629       17.9232945088
  H        12.9913318790        0.5871150311       21.1620380196
  H        12.6108916654        1.1536447619       19.5012019884
  C        14.1176179314        2.2804431061       20.6547952006
  N        10.1542670283        8.5402544372       17.9535703439
  C        10.4701005130        8.3637576587       15.6973475784
  C        10.7637844076        6.1835236004       14.5252578027
  H        10.3237969019        4.5333038682       15.6501863851
  H         0.1500947607        6.3234155717       29.8834188819
  H         0.7995569105        4.9671349424       30.3920155674
  H         1.5691634670        6.3392443862       30.8919268199
  S         4.3977146424        1.7018226890       34.1849746962
  C         4.6580699478       -0.8638394905       34.8619797884
  H         4.5823665696        3.4644144749       18.6374956748
  H         4.8245333742        3.1938076442       17.0427034408
  C         3.1711604355        2.0921064058       17.9745989706
  H        13.7483378917        3.1663275423       20.0532154208
  H        14.9838159776        1.8545747075       20.1474622090
  C        14.4853859973        2.7251218008       22.0531059346
  S         9.9728109908       10.0649364777       17.3859024706
  N        10.4837197656        9.7871283270       15.8516004253
  C        10.8231663396        7.6858220756       14.5023384959
  H        10.8511743061        5.6666071709       13.5909284618
  C         4.0498501411        1.0849576247       35.8159844359
  N         4.1536411008       -0.2023371816       35.9620945859
  O         4.8990140173       -2.0927778516       34.8269608931
  H         2.4113573752        2.7076433526       17.6111710113
  H         2.7739555747        1.9243871091       18.9594372600
  C         3.1474613258        0.7504943704       17.1890383464
  H        15.0490323219        3.6410335245       22.1185862771
  H        13.5785079156        3.0666537693       22.6045834918
  C        15.2265680534        1.7183761089       22.9930280601
  C        11.0261403459        8.3879892437       13.2942772114
  S         3.6971228890        2.1315040647       37.2038051034
  C         4.0256103954       -0.9686261729       37.1670287821
  H         2.3432136380        0.9376958693       16.3385266202
  H         4.0845273112        0.4687626594       16.7557903718
  C         2.5537582620       -0.3541107290       18.1272680058
  H        15.3310004095        0.7693156657       22.5102721360
  H        14.5884192703        1.4610172264       23.8735854917
  C        16.5721557408        2.2406990707       23.5024371056
  H        10.7910445950        9.3857583860       13.3027710670
  C        11.5853892042        8.0372085356       12.0863982195
  H         3.3520186530       -0.4605975248       37.8462707630
  H         3.7234820335       -1.9883114333       37.0296303052
  C         5.3470927103       -0.9524648575       37.9813381982
  H         1.7167194186       -0.0317393229       18.7732258045
  H         3.2878727187       -0.6085795036       18.8736559718
  C         2.1321812780       -1.5259520747       17.3120535300
  H        16.4287437045        3.2660875369       23.8760940393
  H        16.9427757045        1.6114267238       24.2847231719
  C        17.6507437907        2.2762618318       22.3749092356
  S        12.2766856196        6.5093045326       11.6178387573
  C        11.6135257276        9.0280411023       11.0273124350
  H         5.5445900918        0.0395354474       38.3639133775
  H         5.2677259527       -1.5625041186       38.8754583440
  H         6.1049973609       -1.4411814948       37.3739768505
  H         1.4352260470       -1.0566399322       16.5829837750
  H         1.5474496710       -2.2255135105       17.8805307439
  H         2.9452400636       -1.9632310345       16.7094060571
  H        18.5802335184        1.8090845968       22.7330103423
  H        17.8155126189        3.2175464465       21.9069113018
  H        17.4546834009        1.5600898397       21.5405649716
  C        12.6488466274        7.2605034071       10.0396254480
  N        12.1100194494        8.5197939709        9.8955456836
  O        11.1674248498       10.1180119959       11.2228570882
  S        13.2628035953        6.3856116473        8.5782027204
  C        12.3711168714        9.4363959371        8.8074634562
  H        13.0157745495       10.2365605716        9.1754825769
  H        13.0476217451        8.9333619030        8.0746113966
  C        11.0128190031        9.9291530982        8.1744798707
  H        10.3198685517       10.4306451353        8.8045164578
  H        11.1412762356       10.5695643270        7.3457407980
  H        10.5205113628        8.9742668368        7.9117682270
  H        -3.4465367864       14.5346981651       16.4351466515
  C        -3.3540355709       13.4532588463       16.4679632868
  H        -4.2773039582       12.9914237070       16.7384039181
  C        -2.2686468476       13.1676047002       17.4806271920
  C        -2.9704514216       13.0420813304       15.0164309965
  C        -2.8260425507       13.1370439012       18.9384580947
  H        -1.9035451194       12.2143659126       17.2620857579
  H        -1.4632054052       13.8908411136       17.5253851508
  H        -2.2246287597       12.2122452522       14.9020314771
  H        -3.7276207341       12.8040304127       14.3019849212
  H        -2.4523644793       13.9325419390       14.6301156924
  C        -1.7951143630       13.5302056835       19.9731977948
  H        -3.3342082438       12.1697223227       19.1615843151
  H        -3.5933146848       13.8840762871       19.1493068951
  C        -2.2560898647       13.5196482277       21.4168179880
  H        -0.9494208657       12.8877133444       19.9597162214
  H        -1.3823504132       14.5777189540       19.7372128858
  C        -1.3456631509       12.7047226228       22.4365272058
  H        -3.2677366471       13.2074312145       21.5655567365
  H        -2.2639251410       14.5680000381       21.7078604114
  C        -0.2883997198       13.6552472527       22.9729659412
  H        -1.9495859720       12.4067637901       23.2762901359
  H        -0.9850097700       11.7758201670       21.9542772211
  C         0.9305824922       12.9358748119       23.6141916474
  H         0.0724589603       14.1684506521       22.0456680718
  H        -0.5981602176       14.3785661088       23.6904578918
  C         1.2500182945       11.5844497224       22.9009716046
  C         0.5402249244       12.2435939613       24.8411354621
  C         2.1534838353       13.8547077650       23.7698963211
  C         1.1238298242       10.4825025383       23.7788095351
  C         1.8920523849       11.2886382795       21.6687427491
  C         0.5673074009       10.9181007270       24.9862181980
  C         0.0757830465       12.9277251836       25.9912817888
  H         2.4687253802       14.4231493985       22.8052012153
  H         2.0366133224       14.6106130618       24.4180946077
  C         3.4172026135       13.2035759861       24.3332326074
  S         1.4425331478        9.0315332262       23.0158496983
  C         1.9866168720        9.9073345751       21.5691571566
  H         2.1740471727       12.0789321096       20.9799218752
  C         0.1973468771       10.3666720626       26.1304714669
  H         0.0297534760       14.0137531857       25.9285482513
  C        -0.2343041381       12.3084422309       27.1461511179
  H         3.6039434105       12.2333981823       23.8243144997
  H         3.2615536876       12.7853425755       25.3733084446
  C         4.6635380739       14.0482086818       24.1783124194
  C         2.2991460066        9.1397947281       20.3243229330
  C        -0.1381550168       10.9816068103       27.3141194574
  H         0.1716591839        9.2583526578       26.2441881140
  C        -0.7190803070       12.6539785677       28.4186384840
  H         5.3547341317       13.7410563749       24.9488876687
  H         4.4065581714       15.0623327852       24.4725797790
  C         5.3369321459       14.1554466839       22.8010044792
  C         2.3140268626        7.7832608974       20.0918522307
  C         2.8238477532        9.9982285786       19.2351830084
  C        -0.5410345012       10.3092211244       28.6182097601
  C        -0.9396671421       11.6516630871       29.2976517999
  S        -1.0401856436       14.1854948340       29.1331368441
  H         5.7868379613       15.1054745025       22.7255091578
  H         4.5810226200       14.1549449356       21.9872062376
  C         6.3363639474       13.0704628650       22.5010388482
  N         2.0892729448        6.7403119413       21.0091878484
  C         2.6485300068        7.2420851221       18.8933819635
  C         3.2129289218        9.4300130592       18.0249540608
  H         2.9275021451       11.0648887234       19.3843107806
  C         0.5203143215        9.5228691453       29.4069361435
  C        -1.8816035951        9.4334433572       28.3936565079
  C        -1.2162572525       12.0788655014       30.5787633564
  C        -1.3804562444       13.4181460594       30.5917620316
  H         7.0965397713       12.9362792476       23.2737176722
  H         5.9969324795       11.9909274066       22.4712684825
  C         7.1001241552       13.3714536178       21.2066471676
  S         2.0620060803        5.3361800183       20.3252311303
  N         2.5561520229        5.8574196422       18.8727911002
  C         3.1204433459        7.9801824382       17.8014597479
  H         3.5489888339       10.0707776865       17.2597889404
  H         0.7054411499        8.6879229207       28.8194217081
  H         0.0564604514        9.0394077064       30.2780912321
  C         1.7673223815       10.3777514231       29.9031502627
  H        -1.7304808092        8.5898805123       27.7107451444
  H        -2.1368101193        8.9306804556       29.3263706924
  C        -3.0471331549       10.1800134530       27.6992711523
  H        -1.5191564148       11.4151135928       31.3207964954
  C        -1.8254327395       14.2142576516       31.8240988385
  H         8.0743372854       12.9157068983       21.2028138070
  H         7.3348041359       14.4468334059       21.3307766305
  C         6.3817103115       13.3100275567       19.8875358944
  C         3.4129847661        7.3446035400       16.5950850541
  H         2.0085359865       11.0303755855       29.0874277778
  H         1.4631021113       10.9797237673       30.7614701469
  C         2.9326196505        9.5167361732       30.3563150440
  H        -2.8210836569       10.7164092010       26.7172855085
  H        -3.3999312803       10.9860890446       28.3543320786
  C        -4.2426676531        9.3213172215       27.4452371903
  C        -1.8081012658       15.6256596538       31.9407438264
  C        -2.1956472768       13.4154985255       33.0465674069
  H         5.6355517088       12.4884102855       19.9061603680
  H         5.8601849013       14.2275484670       19.4828538820
  C         7.5180927067       13.0805692737       18.8378176751
  H         3.3552959587        6.2866031772       16.5886390842
  C         3.8427933184        7.7806325854       15.4104148761
  H         3.1838569780        8.6554082383       29.7063336935
  H         2.5897081595        9.1576399799       31.3335784432
  C         4.2790016010       10.2988098804       30.5938440320
  H        -4.0868047083        8.5357155587       26.6894406442
  H        -4.3369306103        8.8019104153       28.3266747717
  C        -5.4289411053       10.2363717427       27.2425437761
  N        -1.4028575787       16.5570590432       30.9352538303
  C        -2.1400007216       16.2925656908       33.1489828936
  C        -2.5011574635       14.0709149790       34.2580363394
  H        -2.1952797351       12.3245519941       32.8981658284
  H         7.1469662979       12.6295431575       17.9134856120
  H         8.0162466090       14.0723832402       18.6064812613
  H         8.2941120434       12.4168531540       19.2903886462
  S         4.0404946931        9.4194051496       14.8859243081
  C         3.8621565244        6.8147494081       14.2318444367
  H         4.2977277936       11.0681855629       29.8654077103
  H         4.4042569016       10.6949544378       31.6057757091
  C         5.4534765661        9.3849237229       30.3359259414
  H        -5.2650303528       10.9978630106       26.5438021317
  H        -5.7904290030       10.7208454913       28.1369172198
  C        -6.6382335680        9.4614882092       26.6778664260
  S        -1.6292014323       18.0608851327       31.4839269367
  N        -2.1621662019       17.6936252835       32.9815845779
  C        -2.6197172828       15.5419846804       34.2729530978
  H        -2.8493239578       13.5109519153       35.0583061830
  C         4.2150120377        8.8112675552       13.2939982561
  N         4.2361216455        7.4501757097       13.1381613998
  O         3.6086161901        5.5829106365       14.3687358306
  H         6.3550218530        9.9460041139       30.0965913228
  H         5.2778602896        8.9166838776       29.3437964914
  C         5.6165018576        8.1871837819       31.3124248933
  H        -6.4673630016        9.1632783093       25.6886481830
  H        -6.7898342953        8.5978088989       27.3456622030
  C        -7.8711363303       10.2956035437       26.8824367391
  C        -2.7934303618       16.2799473390       35.4416784103
  S         4.6310732013        9.7601330641       11.9051728097
  C         4.2931033352        6.7654409456       11.8772888208
  H         5.6992071790        8.6610194295       32.2475694859
  H         4.8393507666        7.4966849075       31.2283168568
  C         6.8053703432        7.3321861075       31.0365863097
  H        -7.6778937467       11.3538114556       26.5862281737
  H        -8.1517668326       10.2821052765       27.9063059240
  C        -9.0636970911        9.5723377582       26.2686077781
  H        -2.2937694209       17.2822517046       35.3288082940
  C        -3.2996600505       15.9277756788       36.6305413417
  H         4.9353798734        7.2514936185       11.1398622049
  H         4.7047678478        5.7064934490       11.9843979399
  C         2.9010700332        6.5031031487       11.2695876941
  H         7.1816301282        7.0596674891       31.9759625190
  H         7.4656571916        7.9158008783       30.5089100761
  C         6.4332493507        6.1007444832       30.2467497417
  H        -9.0896266052        8.5898097695       26.7349763272
  H        -9.8919759264       10.3165830062       26.4429691837
  C        -8.9979631975        9.4992570732       24.7918588754
  S        -3.9359509918       14.3914397091       37.0719277983
  C        -3.3736279668       17.0474828870       37.6119525247
  H         2.2508254696        6.0419814321       12.0452953307
  H         2.4807257020        7.4547199806       11.0338736774
  H         2.9440021379        5.8757945447       10.3638374216
  H         7.2811316835        5.4004021612       30.3190075955
  H         6.2878865565        6.4029417733       29.1952513203
  H         5.5576753472        5.5728287389       30.6787973033
  H        -8.7644809343        8.4817508750       24.5446336033
  H        -8.3284673265       10.2121403916       24.3159080992
  H        -9.9499714826        9.8381145657       24.3816958541
  C        -4.2765290357       15.1770345277       38.6002824870
  N        -4.0082818940       16.5571138561       38.6970791941
  O        -2.8969148623       18.1586541618       37.4362005198
  S        -4.6545968993       14.2221885766       40.0152315450
  C        -4.0523751179       17.2668255170       39.9203259823
  H        -4.1845083046       18.3129084457       39.6698573891
  H        -4.9405909880       17.0039235564       40.5020232533
  C        -2.8455857766       17.1220858995       40.8227381124
  H        -3.0855689235       17.1375822793       41.8865233816
  H        -2.4402435333       16.1062149890       40.6910043600
  H        -2.1249113558       17.9392896439       40.5101175176
