352
 i =     5800, time =     5800.000, E =        29.7790593096
  H        11.8099781084        5.0749649605       32.2245553799
  C        10.8505301457        5.5192747399       32.2052672402
  H        10.2674134440        4.8556959653       31.6380863835
  C        10.9652017089        6.7833933315       31.3588820624
  C        10.4170921550        5.8878413752       33.6081089206
  C        11.3231345413        6.4521633565       29.8597816971
  H        10.0593292371        7.3617725034       31.4903823028
  H        11.8153374503        7.3647387593       31.7542447480
  H        11.2301618523        6.4240179332       34.0889699454
  H         9.4812447895        6.5152363114       33.5690113123
  H        10.1822069897        4.9646351374       34.1991857568
  C        10.2283145795        5.8375527341       29.0123099616
  H        12.1865777875        5.7578045485       29.9874488807
  H        11.7549636684        7.3506776964       29.3797458327
  C        10.6372410384        5.8618748430       27.5878514579
  H        10.1553643818        4.7533816076       29.3493350715
  H         9.2176805758        6.2841135606       29.2981999255
  C         9.7103189879        5.1989592351       26.6370902571
  H        11.5374352080        5.3618271233       27.3711021091
  H        10.7215433601        6.9437957699       27.2916713067
  C         8.5389375657        5.9625253755       26.1487906133
  H        10.2213056441        4.8559721800       25.7514656578
  H         9.4997051915        4.2700925094       27.1729322726
  C         7.5041175458        5.1590512422       25.3266719429
  H         7.9625275725        6.4953981183       26.9445116684
  H         8.9448442700        6.8603564239       25.6345226225
  C         7.1974602256        3.7602096246       26.0271813706
  C         7.8667951221        4.3525799799       24.1020124606
  C         6.2366554628        6.0560222398       25.2618360777
  C         7.2586243061        2.6659148148       25.1661087817
  C         6.6724793659        3.3481178846       27.2560166216
  C         7.7220050715        3.0174683121       23.9634345509
  C         8.3826683965        5.0800749792       23.0666885514
  H         6.4382186162        6.8831408928       24.5285069239
  H         6.0326720139        6.6136857176       26.1476274169
  C         5.0403793291        5.2753523291       24.8323881148
  S         6.7312070593        1.1490612724       25.7973333840
  C         6.5034834140        2.0014481681       27.3430964187
  H         6.3905794528        4.0732622441       27.9401775921
  C         8.0189619172        2.4466205779       22.7649381641
  H         8.5853083514        6.1403853783       23.2222209265
  C         8.5426808115        4.5243513427       21.8451977409
  H         5.2063525699        4.6813207062       23.8611625062
  H         4.7873777848        4.5377492783       25.5221739175
  C         3.7993813255        6.0538898197       24.6268374033
  C         6.0295909851        1.3144038230       28.6579006024
  C         8.4289630329        3.1846925193       21.7010430783
  H         7.7761109474        1.3479120023       22.5825878711
  C         8.9256540416        5.0031026305       20.6334425483
  H         3.1716668248        5.6526374998       23.7591362063
  H         4.1192724164        7.0130495094       24.2859609361
  C         2.8501654197        6.3613585047       25.7660020039
  C         5.9386912173       -0.0302463425       28.9057103365
  C         5.4160958479        2.2145758352       29.6732150116
  C         8.8067351644        2.5075258999       20.4768524249
  C         8.9824283365        3.9020251082       19.7572312974
  S         9.1213858622        6.5539920470       20.0034226822
  H         2.3504038957        7.3017487941       25.5789490511
  H         3.5004520108        6.3864891181       26.6692880358
  C         1.7913475652        5.3796227440       26.1828125405
  N         6.2758846482       -1.0597523233       28.0293848977
  C         5.6658539870       -0.5435488368       30.2261722275
  C         4.9658070755        1.6939750856       30.9081635131
  H         5.2469816581        3.2651549314       29.4629933341
  C         7.6854325909        1.7609954715       19.6547599424
  C        10.1153499303        1.6762749840       20.4848799951
  C         9.4135432775        4.3778452967       18.5262857414
  C         9.5722062470        5.7684605371       18.4840197128
  H         1.2292442862        5.2330319458       25.3349048370
  H         2.2196293737        4.4734845343       26.4589714738
  C         0.9647119463        5.7645296455       27.4776489701
  S         6.3622893622       -2.4473749505       28.8499096010
  N         5.7649546259       -1.9622521451       30.3086420738
  C         5.1807363750        0.3158951900       31.2674045417
  H         4.4005778065        2.3626063554       31.5428630203
  H         7.4128844310        0.8800835322       20.1986961488
  H         8.0710869200        1.4553453117       18.7269513041
  C         6.3796438168        2.5275426516       19.4734003392
  H        10.1592827453        1.1614043996       19.5402112691
  H         9.9799915557        0.9210931333       21.2793561833
  C        11.4295801157        2.4184769655       20.9049034738
  H         9.7753435318        3.7774278310       17.7656441625
  C        10.0482422691        6.5222856025       17.2407200207
  H         0.3059943516        4.9073927170       27.5228289568
  H         0.3490202234        6.6850205612       27.3213319601
  C         1.9026829073        5.9568511965       28.6725535449
  C         5.0352248827       -0.3301992262       32.5336557891
  H         6.4426919094        3.6122445078       19.1947915619
  H         5.8861567033        2.5680498722       20.4840476643
  C         5.3448719717        1.7921603473       18.5611360080
  H        11.2628798115        3.0173686914       21.8426026553
  H        11.6408862662        3.1580579741       20.1348935682
  C        12.6264190894        1.4529975475       21.1342610001
  C        10.1660329594        7.9231755960       17.1162349888
  C        10.3071854132        5.7843295333       15.9592708106
  H         2.6802191009        5.3002125362       28.4794197150
  H         2.4928325790        6.8903877494       28.6708848430
  C         1.1526218345        5.5931203216       30.0046672438
  H         5.4818304935       -1.3887357235       32.4772675726
  C         4.6814194171        0.1781929773       33.7467040758
  H         5.1203638808        0.7518296668       18.6387413069
  H         5.5240968159        2.0881669596       17.5240224490
  C         3.9780056923        2.2808646306       18.8363808092
  H        12.4861346551        0.6995931743       21.9171795319
  H        12.8015502176        0.9463198252       20.1622283675
  C        13.7457138622        2.4441912018       21.4284537020
  N         9.8826501610        8.7942091973       18.1217028245
  C        10.3506008567        8.5472009457       15.9077891742
  C        10.5880208037        6.4244225486       14.7554508053
  H        10.2301549552        4.8019804387       16.0162817403
  H         2.0319287950        5.1304668326       30.5644290611
  H         0.8755501550        6.4068437329       30.6452275127
  H         0.3319299578        4.9207810485       29.7586203847
  S         4.3181552947        1.8273645342       34.1718796257
  C         4.7421284817       -0.7101471453       34.8935017337
  H         3.8875513448        2.6684701636       19.8258223421
  H         3.8346606582        3.1616195542       18.1957932534
  C         2.8700406298        1.2531255811       18.6603432493
  H        13.4225308741        3.2648991719       22.1033106034
  H        14.0479925138        2.8615520114       20.4613802722
  C        15.1132164758        1.8231928065       21.8680943723
  S         9.9078497484       10.3104745074       17.4946317171
  N        10.3659001764        9.9661047929       16.0183126985
  C        10.7210570514        7.8759888229       14.7182081815
  H        10.7886440240        5.8681149663       13.8700955367
  C         4.3669522570        1.2612438142       35.8171242685
  N         4.3058674725       -0.0606724580       35.9568401101
  O         4.9865387674       -1.9229964984       34.8158484226
  H         1.9171335984        1.6777215268       18.7484766683
  H         3.0014155048        0.6324858785       19.5514115805
  C         2.8228837810        0.5558862782       17.2743707948
  H        15.0148689358        0.7412653974       22.0158798357
  H        15.8513108016        2.1169651486       21.1341978636
  C        15.5790918307        2.3828011456       23.2125468530
  C        11.1725702132        8.5772492338       13.5482138567
  S         3.7934908790        2.1664441006       37.2045910813
  C         4.2453970781       -0.7627862603       37.2630570443
  H         2.5734445357        1.2978868061       16.4521699875
  H         3.7838081230        0.1118095744       17.1931965542
  C         1.8725863075       -0.5874908970       17.2263107721
  H        14.8685260440        2.4017165660       24.1180558004
  H        15.8933682925        3.4026363910       23.0354516311
  C        16.8777797676        1.8309336735       23.6926536033
  H        10.8924285523        9.6506433428       13.6196923765
  C        11.6008805068        8.2152665723       12.3129253312
  H         3.4767022128       -0.3582034887       37.9260753287
  H         4.0710934676       -1.8659497324       37.2904888427
  C         5.5826132066       -0.5591745791       37.9064256515
  H         1.5726034062       -0.7382614431       16.2024068384
  H         1.0711101531       -0.2936346131       17.8273950596
  C         2.4457081028       -1.8825063555       17.7389734748
  H        17.3563043544        2.3908947121       24.5722851664
  H        16.7067253006        0.8450446656       24.2338602656
  C        17.9146930347        1.7677791722       22.7056532707
  S        12.2868470946        6.6872737951       11.8440741761
  C        11.7762933341        9.2445279163       11.2590133151
  H         5.5999920388        0.3257469044       38.4400017218
  H         5.9708207309       -1.3279385387       38.6242186782
  H         6.4188759633       -0.4008741415       37.1029720179
  H         2.5492279053       -1.8394866953       18.7935567686
  H         3.4369899533       -2.1667888673       17.2303371508
  H         1.8115804110       -2.6805845864       17.5243252418
  H        17.6547974209        2.4934508773       21.9058085721
  H        17.9687098980        0.8112738652       22.3549634560
  H        18.9472978514        2.0784861367       23.0519541979
  C        12.5377698989        7.3887962454       10.2572604793
  N        12.3697504111        8.6856324019       10.2065587232
  O        11.4196331094       10.4277465155       11.4017197406
  S        13.2216980001        6.5282130976        8.8815837941
  C        12.5347362207        9.4091641041        8.8950854206
  H        12.5768327546       10.4662430701        9.1641483413
  H        13.4140259089        9.1632947000        8.4440293840
  C        11.3076831854        9.1820749162        7.9647546133
  H        10.4795799603        8.7581183379        8.5293635921
  H        11.1449766174       10.1728105245        7.5194141277
  H        11.4353162953        8.4339921889        7.1365991763
  H        -3.7755512825       13.7463590971       16.5581325706
  C        -2.6856097300       13.5963971454       16.3325284132
  H        -2.4774742571       12.4660296195       16.1887715570
  C        -1.8556867224       14.2403774378       17.3987105424
  C        -2.3392698630       14.2765709362       14.9792183639
  C        -2.4348462567       13.8486224460       18.7411945280
  H        -0.7664987188       13.8788871881       17.3255905535
  H        -1.7825147362       15.3356733565       17.2985839902
  H        -2.9931157335       14.0393790010       14.2675981006
  H        -2.3799456534       15.3482179153       15.1943194292
  H        -1.3293142286       14.0729136310       14.5883299534
  C        -1.3594325086       13.8303302572       19.8095284556
  H        -2.9462702392       12.9184196057       18.7842185269
  H        -3.2800916861       14.5456941929       19.0664813752
  C        -1.9718196059       13.7389605865       21.2475607131
  H        -0.6502616884       13.0147477637       19.6380038633
  H        -0.6383803691       14.6938541906       19.6816160920
  C        -1.0971623551       13.0441641246       22.3093673830
  H        -2.8328991228       13.2046543639       21.0074621323
  H        -2.2827492303       14.6949328802       21.6942231618
  C         0.1808126729       13.9065965197       22.4963858918
  H        -1.6826487115       13.0585709795       23.1726032135
  H        -1.0615454261       12.0162830463       22.0888506268
  C         1.2058960098       13.2177019605       23.3476217609
  H         0.5568662992       14.1384226454       21.5401447434
  H        -0.0317978501       14.8275936980       22.9089652437
  C         1.4026217643       11.8330620154       22.6724293230
  C         0.5451840109       12.4710961930       24.4943979347
  C         2.4247988277       13.9979928232       23.7229810334
  C         1.1552079590       10.7125424767       23.4318086183
  C         1.9385613343       11.4591332547       21.4643234161
  C         0.6693127884       11.1237774128       24.6220819682
  C         0.1518974821       13.1267955480       25.6773099198
  H         2.7635386051       14.6243243740       22.9083841821
  H         2.1323223501       14.6929453332       24.5754243821
  C         3.5840098296       13.1008879710       24.2529325399
  S         1.5508848725        9.1854878233       22.6122879787
  C         2.1233528132       10.1298755609       21.2723954286
  H         2.2128386604       12.3234019264       20.9188511935
  C         0.2945750411       10.5072372820       25.7666172886
  H         0.0942085168       14.1851175357       25.6177481124
  C        -0.1552596470       12.5359152229       26.8429796815
  H         3.7662584606       12.3075107316       23.6291463309
  H         3.3647899345       12.5729416576       25.1158168355
  C         4.8675785935       13.8959172555       24.4429431174
  C         2.5080809095        9.4707167615       19.9849552094
  C        -0.0778631221       11.2098284861       26.9532549729
  H         0.3798747456        9.4736274937       25.7307836879
  C        -0.5922474342       12.9451754725       28.0557788062
  H         5.5294663266       13.2715197827       25.0616416595
  H         4.6676551188       14.7790824682       25.0909101543
  C         5.6360751779       14.2083436413       23.0661125126
  C         2.3140838032        8.1090980107       19.7040849213
  C         2.9232740662       10.3480761229       18.9112873521
  C        -0.3318807585       10.4241724894       28.1853528927
  C        -0.7217848118       11.8151468926       28.8580679220
  S        -0.7877435747       14.4636583836       28.8751071077
  H         6.4368198408       14.9144148564       23.2326935519
  H         4.8192038434       14.6750672933       22.4169606974
  C         6.1063705441       12.9561886116       22.2400578971
  N         2.0151494341        7.0680953784       20.5990418202
  C         2.5515417174        7.5995110761       18.3979106134
  C         3.1378960843        9.8549422654       17.6334789828
  H         3.0494301244       11.3972505308       19.1038264685
  C         0.7956228873        9.7374852700       29.1267516410
  C        -1.5805183060        9.5657772699       28.0295244483
  C        -1.0765854912       12.2322802579       30.1214966049
  C        -1.2070069935       13.6043251623       30.3033402266
  H         6.8228579947       12.3359614418       22.8417002931
  H         5.1848362387       12.3367878543       21.9762140677
  C         6.7635648790       13.4343762818       20.9585383340
  S         2.0656069820        5.6332043029       19.8099595303
  N         2.4299450765        6.1900353116       18.3470354956
  C         2.9421610937        8.4114213460       17.2735677940
  H         3.5104657001       10.5189274767       16.9001140520
  H         1.3168355540        8.9255985789       28.6158034383
  H         0.2801730247        9.1678452785       29.8662190784
  C         1.8903706253       10.6221117149       29.5623659910
  H        -1.3080574072        8.7874122358       27.3772425884
  H        -1.7483471938        8.9835470056       28.8791956021
  C        -2.8241323517       10.2119536776       27.3720805947
  H        -1.1637479663       11.6189509609       30.9689542361
  C        -1.4894190977       14.3567940669       31.5789566608
  H         7.7778662463       13.0506202371       20.8813178038
  H         6.8411196542       14.4958221042       20.9074761774
  C         5.9166025777       13.0716037510       19.6714683843
  C         3.0963446618        7.7010903567       16.0784597392
  H         2.2747213241       11.2664977002       28.8328936507
  H         1.5730471364       11.2611951045       30.3367133170
  C         3.0232059250        9.8152337038       30.1170623037
  H        -2.5578704842       10.7078797569       26.4859787560
  H        -3.3047270077       10.9439830569       28.0780407864
  C        -3.7868973865        9.2029531729       26.9242240922
  C        -1.6885007414       15.7816846029       31.7843753844
  C        -1.7487337160       13.5480162054       32.7972247119
  H         5.4953339104       12.0236498511       19.5910476805
  H         4.9727713631       13.6810889997       19.7972044578
  C         6.6192926642       13.5455020173       18.3513727930
  H         2.9116454215        6.6382202966       15.9725357319
  C         3.4840718641        8.1929839881       14.8558575373
  H         3.3704450384        9.2219501286       29.2366891195
  H         2.5897807820        9.2496860154       30.9079419179
  C         4.2203643443       10.6571267380       30.6853830165
  H        -3.1933236051        8.4833928539       26.3162657999
  H        -4.1516229006        8.6808594547       27.7846570777
  C        -4.9841126269        9.7685686654       26.0892787131
  N        -1.5351717854       16.7346084245       30.7470941580
  C        -1.9712924134       16.3626914712       32.9805502110
  C        -2.0759973998       14.2114879611       34.0190917557
  H        -1.5100441545       12.4383091678       32.8488451316
  H         7.6087080117       13.2085607405       18.2038326909
  H         6.0618865947       13.2350190110       17.4326497668
  H         6.7253311222       14.6419002944       18.3367676602
  S         3.9774641036        9.7845888844       14.4390031170
  C         3.6137251768        7.1638319349       13.7476227754
  H         4.2012687233       11.6245363479       30.1893117791
  H         3.9638429164       10.6459976817       31.7400532042
  C         5.6732273911       10.1567956004       30.4760118456
  H        -5.5231583085        8.9454215146       25.7145467649
  H        -4.5757913724       10.3761489741       25.2908473259
  C        -6.0473736580       10.6200970702       26.8855226513
  S        -1.4696226766       18.1898044430       31.4320452914
  N        -2.0239431942       17.7495244064       32.8575256116
  C        -2.3026550552       15.6356424112       34.1235142866
  H        -2.1075868131       13.7633192171       35.0167187962
  C         4.3216475832        9.1409538580       12.7957678789
  N         4.1673104397        7.8072693735       12.6689572375
  O         3.3582808393        5.9682420050       13.8305872052
  H         6.4498175689       10.8496259319       30.8720158067
  H         5.8665581692       10.0555980716       29.4362675190
  C         5.7989956124        8.7914995118       31.1426576761
  H        -6.6790379601        9.9277428924       27.5567389561
  H        -5.5209734436       11.2972431764       27.5266912849
  C        -7.0785306301       11.2294241782       25.9234368738
  C        -2.6492858475       16.3308710645       35.2664449763
  S         4.8117161647       10.2409248999       11.4757824693
  C         4.2316164541        7.1364226296       11.3306614695
  H         6.2814601019        8.9162175907       32.1744037110
  H         4.8222109512        8.3941268630       31.3917480489
  C         6.4989009376        7.7453729185       30.1845733657
  H        -6.4810793607       11.4740831498       25.0768884354
  H        -7.5023190727       12.1859193881       26.3184766880
  C        -8.0959946501       10.2448778803       25.3420586698
  H        -2.2680774994       17.3274290022       35.2396616566
  C        -3.1223765292       15.9161814148       36.4850579702
  H         5.0529962625        7.5604201219       10.7619069520
  H         4.5164936002        6.0814710202       11.5235870073
  C         2.8157645116        7.0825862312       10.7092171588
  H         7.5348990932        8.2198411454       29.9567182399
  H         5.8995732152        7.6863163513       29.3049571951
  C         6.6558226401        6.3470142365       30.8543739641
  H        -8.4485788694       10.6861593956       24.3845174905
  H        -7.7066849464        9.2477445307       25.2290881492
  C        -9.2877692864       10.1234068025       26.3161326005
  S        -3.7371094128       14.4175684014       37.0306423380
  C        -3.2458340232       17.0696379559       37.5292208399
  H         2.3099349651        8.0010632996       10.5581695975
  H         2.8197668178        6.3786485280        9.9323927209
  H         2.1837409542        6.5819730578       11.3747172449
  H         5.6066869953        6.0291041319       30.8859274012
  H         6.9853832293        6.3384161513       31.8774957400
  H         7.3219425717        5.7555915445       30.2435184402
  H        -8.8888725017        9.5137718222       27.1637886792
  H       -10.0715302490        9.4787288577       25.8532019487
  H        -9.5592321250       11.1295498099       26.6385394102
  C        -4.0690031011       15.2084104930       38.5320478436
  N        -3.8485278270       16.5767095149       38.6233323834
  O        -3.0153995724       18.2709652013       37.2777872751
  S        -4.7699170074       14.4065185936       39.9325738095
  C        -4.1297116660       17.4268127845       39.7657833585
  H        -4.3228395911       18.3771531685       39.4179553546
  H        -5.0723068856       17.1419595274       40.2412073523
  C        -2.9805504523       17.3854813578       40.7016468360
  H        -3.1310341220       16.4424703322       41.2485847590
  H        -2.0819268557       17.4369165372       40.1483660391
  H        -3.1162667069       18.2937243334       41.2998398043
