352
 i =    41300, time =    41300.000, E =        24.7738417564
  H        11.9800037276        7.6541199603       31.9586684833
  C        11.6054865363        6.6240517539       32.0374882323
  H        12.4579456858        5.9090777212       31.9613015514
  C        10.5599972376        6.5225922759       30.9403575781
  C        11.0740246338        6.2507559756       33.4180654004
  C        11.2671577312        6.4209739941       29.5643094903
  H         9.9653452103        5.5995587984       31.2363632207
  H         9.9090875307        7.3613314985       31.1089439417
  H        10.8579580070        5.1484624955       33.3521546373
  H        11.8958072862        6.2828943935       34.1503249062
  H        10.1790000274        6.7850585593       33.7773174194
  C        10.3036924148        5.8861762565       28.5034314462
  H        12.2362965951        5.9391801282       29.5531493803
  H        11.4827877850        7.4133638750       29.3151441435
  C        10.8543114247        5.8202153680       27.0799225203
  H         9.8473278747        4.8945755150       28.8987635194
  H         9.4886122300        6.5568023781       28.5630324144
  C         9.7622763921        5.2292128310       26.1583128197
  H        11.7601939434        5.1517244433       27.0552025083
  H        11.0407878962        6.8046207159       26.6429689755
  C         8.5101970331        6.1168573174       25.9072084404
  H        10.2120852838        5.0495330591       25.2208327088
  H         9.4256886145        4.2458487778       26.5276027221
  C         7.3977385807        5.4325439756       25.0624230321
  H         8.0748020910        6.3575150198       26.9419317367
  H         8.7324182966        7.0334946254       25.3676007980
  C         6.9769399527        4.1346963845       25.8202828613
  C         7.8638926123        4.7106571761       23.8690171861
  C         6.1651602334        6.4514533446       24.8320043195
  C         7.3531620200        3.0132039385       25.0754656118
  C         6.3015448757        3.7433661220       27.0038731301
  C         7.8913577662        3.3955655507       23.8494068835
  C         8.3027067260        5.3883582953       22.7506108195
  H         6.4372825295        7.2039691856       24.0619615882
  H         6.0684952205        6.9595343955       25.7879574550
  C         4.9071403409        5.7595075009       24.3453305813
  S         6.9752494430        1.5984743460       25.8534886182
  C         6.3606882847        2.4071295103       27.1626673005
  H         5.9290925460        4.5415389505       27.6691135809
  C         8.2810342362        2.8238526713       22.6942004117
  H         8.4919857488        6.4186341547       22.7235948529
  C         8.6902415862        4.7541131866       21.5775768559
  H         5.1012114253        5.3086303470       23.3455747257
  H         4.8226464385        4.9064310153       24.9835197762
  C         3.6115499728        6.5701585256       24.2259266526
  C         5.9536534862        1.6693871057       28.3594654553
  C         8.7121216900        3.4724713913       21.5257731842
  H         8.2459390717        1.7642023236       22.7014357456
  C         9.1817026582        5.1188651653       20.3213534237
  H         2.9910628840        6.1405405060       23.5002162319
  H         3.9720470145        7.5217656796       23.8032214959
  C         2.9577603024        6.8099546907       25.6283198187
  C         5.9374881898        0.2647602045       28.5520935642
  C         5.7252013929        2.4902155863       29.5780342963
  C         9.1357648903        2.7376158391       20.2890978880
  C         9.3926172883        3.9872991484       19.4976951217
  S         9.4531219329        6.5127935264       19.4714449382
  H         2.2513947412        7.6455496521       25.4249829972
  H         3.7118956227        7.2086197654       26.1952984849
  C         2.4938284278        5.5547565849       26.3098849546
  N         6.2720051398       -0.7148559684       27.6074400941
  C         5.7458016645       -0.2615818462       29.8226526069
  C         5.4089548547        1.9529729688       30.8068978483
  H         5.6806207147        3.5689432302       29.4894615920
  C         7.9710862054        1.9807724087       19.5514743137
  C        10.5195904015        1.9740288818       20.4172026705
  C         9.7776936561        4.3398952818       18.1779791019
  C         9.7263935116        5.7104592431       18.0136663579
  H         1.8506513151        4.9810650475       25.6205750696
  H         3.3496983823        4.9912977758       26.4907152926
  C         1.8202064144        5.6952592219       27.6487896653
  S         6.2987323546       -2.1846731277       28.3972672951
  N         5.8770292358       -1.6740930056       29.8578525884
  C         5.3692354997        0.4765819169       30.9974824800
  H         5.2043289892        2.5748432792       31.6283244462
  H         7.7468660693        1.1717117462       20.1931770959
  H         8.3284398988        1.5198351248       18.6336911693
  C         6.7107959112        2.7736003059       19.2037800717
  H        10.6841487754        1.3800902816       19.5400155114
  H        10.4262361458        1.1370687620       21.1344041472
  C        11.7605233104        2.7690482264       20.7041825908
  H         9.9898350616        3.5484657555       17.4484561023
  C        10.1534249268        6.4347091923       16.7664629330
  H         1.2231311848        4.7976631962       27.7674086287
  H         1.0802774510        6.4703226071       27.5328023657
  C         2.8292584245        6.2006130278       28.7320458993
  C         5.1592741830       -0.1759290150       32.2035276059
  H         6.8502448406        3.7033620014       18.6555605996
  H         6.3237983413        3.0628128507       20.2081760234
  C         5.7447423042        1.9230872218       18.4819574000
  H        11.5159729007        3.3830058366       21.5989378960
  H        11.9912104117        3.4727656553       19.8575134895
  C        13.0635156920        1.9312002566       20.9336280610
  C        10.2874381510        7.8599382260       16.6445259868
  C        10.3931034005        5.6961572707       15.5547855425
  H         3.6912489604        5.5098319024       28.6923244438
  H         3.1766777682        7.1902373584       28.6516200918
  C         2.1424392998        5.9737374995       30.0478110110
  H         5.3041589478       -1.2694209663       32.1197950736
  C         4.8950680686        0.3226752048       33.4771074867
  H         5.6105924444        0.9544179298       18.8940910192
  H         5.9995301630        1.7872443032       17.4835310955
  C         4.4020412115        2.7220873154       18.3192541125
  H        12.9386685456        1.2228861638       21.7157905714
  H        13.3369959368        1.2179407095       20.1258426143
  C        14.2278153879        2.8563795490       21.2259303487
  N         9.8615399025        8.7533614562       17.6752825947
  C        10.6554942653        8.4487926987       15.4713735579
  C        10.6669540155        6.3026212400       14.3226123899
  H        10.2296666194        4.5983417771       15.6276474471
  H         1.5615558695        5.0414663895       30.1717257276
  H         2.9601225147        6.1118655072       30.7112753964
  H         1.3765024794        6.7386197362       30.1196081203
  S         4.6968842931        1.9425796255       33.9512037962
  C         4.7500528389       -0.6986357713       34.5095170215
  H         4.3458322617        3.4593206317       19.1449493328
  H         4.3448813941        3.1486545586       17.3193773194
  C         3.1241097468        1.9360200324       18.5682397263
  H        14.1692440735        3.7605286808       20.7563756515
  H        15.0597476241        2.3545481053       20.7383400065
  C        14.5241612244        3.1829967273       22.7081558011
  S         9.8688537831       10.2409017673       16.9887756111
  N        10.4983901816        9.8516569887       15.5566314824
  C        10.9854587470        7.7916102009       14.2980502957
  H        10.9147595785        5.7398866576       13.4705712033
  C         4.3961166947        1.2237780786       35.5459214057
  N         4.4360903617       -0.1316286927       35.6348442553
  O         4.7300003279       -1.9059324725       34.3073771411
  H         2.2559460191        2.4289959611       19.0250618457
  H         3.2710270690        1.2064242183       19.3719058159
  C         2.5646878098        1.1134648713       17.3671707373
  H        14.9411348842        4.1832359443       22.7177505378
  H        13.5882916697        3.1766522362       23.2460683875
  C        15.4898692218        2.1267856556       23.2668574964
  C        11.3767315233        8.4628828178       13.1881149965
  S         3.8222375866        2.0580801650       36.9965612275
  C         4.4664028609       -0.9332421419       36.8230016434
  H         1.7650149455        1.6141687330       16.8263489140
  H         3.3309734593        1.1018601954       16.6508697727
  C         2.2129771942       -0.3144528800       17.7714569049
  H        15.5611538032        1.2227367574       22.5557151052
  H        15.0894432864        1.7473258707       24.2085678804
  C        16.9167492924        2.4852386210       23.3545907820
  H        11.0243787426        9.4803404457       13.1537352494
  C        11.9298259937        8.0368334179       11.9780750651
  H         3.7522602767       -0.6763610777       37.6246295526
  H         4.0770317485       -1.9399753297       36.6568342290
  C         5.8978664141       -1.0507612500       37.4109677733
  H         3.0777683860       -0.9634990272       17.8352662291
  H         1.4924293579       -0.6573562261       17.0598845171
  C         1.4839215006       -0.3880048000       19.0678496518
  H        17.0993262241        3.4011799432       23.8820432114
  H        17.4257620759        1.6752532302       23.8857360832
  C        17.5682276839        2.7149900682       21.9821645645
  S        12.5412047899        6.4771501424       11.6494300862
  C        11.8564632602        9.0022681409       10.8730288993
  H         5.9023642119       -0.7898541269       38.4843306780
  H         6.3609908430       -2.0123167026       37.1549711513
  H         6.4963998648       -0.3306673120       37.0176651958
  H         2.2558786109       -0.6201070745       19.8699687581
  H         0.8713956361       -1.3465120175       19.0198152830
  H         0.9054739125        0.5100360436       19.2153675154
  H        18.6157724230        2.3088863015       22.0154890796
  H        17.6127673516        3.8548052802       21.8049337302
  H        17.0931172834        2.2559406871       21.1192197145
  C        12.8213441239        7.1807259501        9.9977849924
  N        12.4458573329        8.4717124408        9.8283022354
  O        11.6081365707       10.1990491855       10.9970190272
  S        13.3011614332        6.2507211783        8.5570638736
  C        12.6593657342        9.2516269637        8.5887464650
  H        13.0315595717       10.3230506346        8.7852370726
  H        13.4573101863        8.8262971933        8.0024157298
  C        11.2945592694        9.2976202084        7.7271922501
  H        10.8879564114        8.3320978299        7.4420463193
  H        10.6084049449        9.6882835531        8.4175994449
  H        11.2641214715        9.9695902550        6.9048071005
  H        -3.4049307212       14.9190897852       15.8850062323
  C        -3.0833690217       13.9199842184       16.1844378226
  H        -4.0197771843       13.5052318019       16.5974884715
  C        -2.0204166710       13.9015661485       17.2838311402
  C        -2.7733027471       13.2246912516       14.8291397587
  C        -2.5075508352       14.2518402882       18.6605362000
  H        -1.6407797940       12.9309632225       17.3220524086
  H        -1.2576669114       14.5696929634       16.9837222384
  H        -1.6916502270       13.2865203904       14.5677975972
  H        -3.0397242455       12.1756943157       14.7876234709
  H        -3.3646220817       13.5891752959       14.0509231630
  C        -1.9005353082       13.4817038587       19.8295991299
  H        -3.6088574885       14.0323045537       18.6150413625
  H        -2.4097979663       15.3107625872       18.7966778144
  C        -2.5207352670       13.6750767430       21.1418518720
  H        -2.0507937810       12.3935573327       19.5862149603
  H        -0.8022501131       13.5680527307       19.7673409130
  C        -1.5093387587       13.2626362818       22.2317667637
  H        -3.4094253905       13.0227320197       21.1464975941
  H        -2.8847693130       14.6775288387       21.4051599251
  C        -0.1545591939       14.0808902516       22.4984132056
  H        -1.9697551819       13.1737961454       23.3009972773
  H        -1.2823058015       12.1922504585       21.9217246133
  C         1.0751460117       13.3636723138       23.2559282829
  H         0.1767521642       14.4435608501       21.5178236446
  H        -0.4330103748       14.9851517672       22.9953025926
  C         1.4931622193       12.0450132255       22.5173945652
  C         0.7481247612       12.6323111149       24.5105887090
  C         2.3695883723       14.2399308898       23.3532477825
  C         1.3647941613       10.9624196346       23.3258882660
  C         1.9602440678       11.6801295539       21.2625838453
  C         0.8347088388       11.2933200076       24.5440629419
  C         0.3647966570       13.2064350018       25.6923187428
  H         2.4476535310       14.7030070123       22.3837123810
  H         2.2554795167       15.0409908203       24.0789769308
  C         3.6683576217       13.4373877702       23.6651781374
  S         1.8141863457        9.4956351588       22.5973519367
  C         2.0476602138       10.3501356297       21.0805527600
  H         2.1544971276       12.4096685100       20.5341882115
  C         0.5574120020       10.6460517330       25.6801960961
  H         0.2681937527       14.2371505358       25.8296744458
  C         0.0078193217       12.5429595437       26.8309027689
  H         3.8465220990       12.7011331199       22.8776748202
  H         3.4268225711       12.8326983638       24.5620118379
  C         4.8695105402       14.2699054188       23.8914208218
  C         2.2757152249        9.6268911042       19.7855203109
  C         0.0603055392       11.1918059416       26.8849693728
  H         0.5176768671        9.5892026761       25.7233495279
  C        -0.3458409577       12.8637202375       28.0876939080
  H         5.4831029258       13.8791937162       24.6646870351
  H         4.6194031346       15.2385785254       24.3273057631
  C         5.7701984612       14.5284121271       22.7233503517
  C         2.3761306534        8.2225124810       19.5752905905
  C         2.6459831532       10.4623148752       18.5955782272
  C        -0.1353512771       10.3718392617       28.1620609344
  C        -0.4670297554       11.7223387335       28.8668918642
  S        -0.6703349862       14.3258636599       28.9892121658
  H         6.3793188278       15.4364373237       22.9490180306
  H         5.1396310187       14.7777249599       21.9028527359
  C         6.7116192378       13.3844760716       22.3997632955
  N         2.1529650001        7.2296159782       20.5359227656
  C         2.7069762740        7.6583284680       18.3597346997
  C         3.0643738049        9.8634837948       17.4462637866
  H         2.4686093501       11.5098260324       18.6344813705
  C         1.1116087301        9.6642699044       28.8014187221
  C        -1.3598758906        9.4766200203       28.0862043928
  C        -0.7929374147       12.0044821111       30.1889504818
  C        -0.9541012074       13.3702131024       30.3900800449
  H         7.4656131548       13.3374276097       23.2040315700
  H         6.3001491303       12.4144435726       22.6231139032
  C         7.2685768272       13.3055059062       20.9641040175
  S         2.1767934628        5.7384753665       19.8435634831
  N         2.8235054027        6.2611436424       18.4211460717
  C         3.0473110439        8.4287254106       17.2134683706
  H         3.1284129535       10.4974512229       16.6591525700
  H         1.5709513576        8.9525327103       28.1768700895
  H         0.6141756399        9.1411438403       29.6529874792
  C         2.2047855726       10.5439379007       29.3288085485
  H        -1.2340450949        8.6150194189       27.4902084412
  H        -1.5219484188        9.0592393983       29.1112032103
  C        -2.5942451587       10.2843552422       27.6354733546
  H        -0.8101966364       11.2452099567       30.9453982683
  C        -1.2543458474       14.1232673514       31.6837700394
  H         7.6216223676       12.3394894999       20.6611941961
  H         8.1487928436       13.9171326479       20.9335496200
  C         6.3587275964       13.7063872902       19.8153613253
  C         3.4414849917        7.7240911941       16.0093072683
  H         2.5913915345       11.1647409316       28.5008673494
  H         1.7509634643       11.1847194654       30.1740127393
  C         3.2573410959        9.8406433735       30.1252171926
  H        -2.2643714894       10.7576051772       26.7130339859
  H        -2.9353253623       11.0709067157       28.3317635334
  C        -3.8177066021        9.5043512005       27.1742473395
  C        -1.4750587322       15.4968097999       31.8654497601
  C        -1.6358479489       13.3178732287       32.8937706125
  H         6.3547078552       14.7982685836       19.7804620787
  H         6.8238637661       13.3594284866       18.8659579618
  C         5.0645070778       13.0672114907       19.9063708819
  H         3.3169403431        6.6696249564       16.1253127511
  C         3.8423546968        8.1405688608       14.7773614103
  H         3.9469561656        9.3619225112       29.4154346884
  H         2.7584317282        9.0978355201       30.7190980479
  C         4.0718244689       10.7694088303       31.0072381749
  H        -3.4858306155        9.1528494825       26.1897423824
  H        -4.0811317301        8.7130006359       27.8853509233
  C        -5.0305951682       10.3958684749       27.0515772479
  N        -1.2942968568       16.4996108163       30.9059480280
  C        -1.8406174903       16.0588961314       33.0541226013
  C        -2.0589545166       13.8705185025       34.0806517304
  H        -1.6050371717       12.2749057898       32.7665653890
  H         4.8575107382       12.4069572684       20.7580766309
  H         4.3260601332       13.8631718686       19.9599300293
  H         4.9506482404       12.5583609648       18.9324185147
  S         4.1186132765        9.7673965186       14.2307596123
  C         4.0064341667        7.1122842389       13.6943684513
  H         4.0679913767       11.8006296934       30.6663426058
  H         3.4653942895       10.8451848294       31.9337373301
  C         5.5028264754       10.2752834220       31.2403040729
  H        -4.6446742356       11.3305307895       26.7966478622
  H        -5.3861496627       10.5609027645       28.0314917369
  C        -6.1047187333        9.8053206398       26.2153181945
  S        -1.3114795583       17.9713091526       31.5601683254
  N        -1.9482873351       17.4740221544       32.9784723932
  C        -2.1080556549       15.3763672347       34.2414391939
  H        -2.3451696904       13.2597922331       34.9644290482
  C         4.4950318017        9.0785117038       12.6661365647
  N         4.4331267220        7.7499092090       12.6156843813
  O         3.8760358609        5.9135062557       13.9121068277
  H         6.0407260336       11.1004608371       31.7894123491
  H         6.1862265823       10.2015164773       30.3844130864
  C         5.5090718119        8.9457102454       32.0568663223
  H        -5.7245541023        9.2114779082       25.3776988198
  H        -6.7331644992        9.1894358951       26.8221443126
  C        -7.0060304318       10.7973426130       25.3917160544
  C        -2.3465824643       16.0726840518       35.4270588403
  S         4.7651142634        9.9400423999       11.1987989444
  C         4.5549412021        7.0104622113       11.3401734850
  H         6.2847119486        9.0111025554       32.7637497591
  H         4.5670540489        8.8700135467       32.6505380968
  C         5.8439763210        7.7685609184       31.1565818943
  H        -6.4170737620       11.2646002824       24.6351119679
  H        -7.0877495780       11.7216569620       25.9839118761
  C        -8.3909528905       10.2635227608       25.0121942909
  H        -2.0472366721       17.0615326435       35.4441270643
  C        -2.9697911904       15.7534313542       36.6417174551
  H         5.4191461386        7.2961393755       10.8165872374
  H         4.6352144320        5.9676760328       11.4925423365
  C         3.2488654620        7.2317756469       10.5126934205
  H         6.4578863541        8.0587495160       30.2540972453
  H         4.8917386842        7.4326211891       30.7864277210
  C         6.5307956825        6.6617297260       31.8532155899
  H        -8.6222786963       10.8180858190       24.0998132875
  H        -8.3190220564        9.2703340322       24.7588460325
  C        -9.3630844365       10.3342451729       26.1576751440
  S        -3.6956437019       14.2370180140       37.1055091240
  C        -3.1476896436       16.8778793258       37.6047070801
  H         3.4532106013        7.8486683495        9.6552788294
  H         2.7757359838        6.2769141246       10.2423190088
  H         2.5625970745        7.7868908306       11.1943684852
  H         7.5461373939        7.0494062433       32.0713842121
  H         6.5117555479        5.7324856740       31.2652472101
  H         5.9209702038        6.3697083732       32.7244925013
  H       -10.3546392937       10.1934644544       25.8882242556
  H        -9.4196402048       11.3445944994       26.6102360383
  H        -9.0113491018        9.6995460354       26.9587482316
  C        -4.1615718097       15.1360121119       38.6248417270
  N        -3.7638393845       16.4328909361       38.7064813145
  O        -2.7570531806       18.0440904970       37.4924877591
  S        -4.4243132465       14.1999178514       40.0404168621
  C        -3.8809464947       17.2511792591       39.9178820225
  H        -4.2904434061       18.2028710325       39.6261660239
  H        -4.5489369908       16.8206777320       40.5735871656
  C        -2.5009964913       17.1438209728       40.6866811153
  H        -2.5999696972       17.0638040383       41.7989193774
  H        -1.8457094193       16.4474394643       40.2527658872
  H        -1.9420790758       18.0654546985       40.4351046714
