352
 i =    39300, time =    39300.000, E =        24.9829392274
  H        11.9063153068        6.8272988825       32.2846782786
  C        11.6415348893        5.7587596169       32.1396211050
  H        12.4677602797        5.0856999026       31.8758888499
  C        10.5336357510        5.6194299404       31.1023254805
  C        11.1160307072        5.0655792185       33.4350129363
  C        11.0002693737        5.9120928297       29.6616051720
  H        10.1211939314        4.6595558214       31.1328415255
  H         9.6965414340        6.1985091829       31.3876499029
  H        11.8775596414        5.1699334991       34.2677639678
  H        10.2117081884        5.6179406769       33.7842851564
  H        10.7940944105        4.0455146935       33.2791009075
  C        10.4717752642        4.7858376834       28.6702012005
  H        12.0418668299        6.0352288175       29.5546682647
  H        10.4594011978        6.7902243203       29.3468781514
  C        10.8555781704        5.2820131746       27.2895780770
  H        11.0157245225        3.8753117635       28.8302185878
  H         9.4369148721        4.4881158851       28.8270182082
  C         9.8998260866        4.8492032166       26.2105959119
  H        11.8209128234        4.8257294808       27.0281188695
  H        10.9570413743        6.3869579230       27.3328252912
  C         8.5634717000        5.5657837156       26.2533055330
  H        10.3842895348        4.7725375222       25.2681778520
  H         9.7163850477        3.7999832277       26.3883133964
  C         7.4314691672        4.8625245633       25.4323507419
  H         8.2900210064        5.7249366078       27.2062333366
  H         8.7611747176        6.6329563270       25.7951714183
  C         7.0266341036        3.5735505928       26.0930085940
  C         7.8317053421        4.1829450984       24.1967479519
  C         6.1306287693        5.7977262453       25.3736540821
  C         7.2114279767        2.4816034895       25.2794435703
  C         6.5528403616        3.2077199813       27.3247275978
  C         7.7918338828        2.8552273080       24.0715708728
  C         8.3943883571        4.8848441786       23.1119124033
  H         6.4030422656        6.6965039637       24.7467548547
  H         5.8646427498        6.0368032492       26.3984488263
  C         4.9165530287        5.0794117940       24.6663333710
  S         6.9125590915        0.9830588246       26.0287103650
  C         6.3089022956        1.8145705899       27.4218138205
  H         6.3796875554        4.0806354816       27.9573597661
  C         8.2053595904        2.2624208030       22.9198303241
  H         8.3735199100        6.0144034340       23.1248791018
  C         8.7067408238        4.3211833193       21.9507109830
  H         5.2032362487        4.9409542167       23.6404614560
  H         4.7452970667        4.2100745620       25.1715663713
  C         3.6751278917        5.8716651471       24.6243225762
  C         5.8068924094        1.0831640798       28.6099162503
  C         8.6926719363        2.9427185051       21.8281448103
  H         8.0685919312        1.1821299994       22.8453586899
  C         9.0791490680        4.6975705476       20.6442862284
  H         2.9590822252        5.2356766472       24.0574461748
  H         3.7775028932        6.6429347259       23.9691632793
  C         3.0672456703        6.3539776069       25.9595194450
  C         5.8462837160       -0.2870983463       28.8417241901
  C         5.3481833042        1.9148410507       29.7269013233
  C         9.0603067571        2.2555430517       20.5078558767
  C         9.2999693911        3.6017720764       19.8568090927
  S         9.2278349842        6.1482259382       19.8443489205
  H         2.4166852728        7.1746568044       25.7175348044
  H         3.8785869938        6.7047577070       26.5424507667
  C         2.3335874438        5.1545244172       26.7143389211
  N         6.3386177149       -1.2460146487       28.0049013960
  C         5.5539002096       -0.8425501020       30.0500269088
  C         5.0579559896        1.3650697573       30.9896001638
  H         5.2475240076        2.9351586094       29.5509021790
  C         7.9085918825        1.4104523542       19.9300801474
  C        10.4195977798        1.4435803448       20.5908597786
  C         9.6411253977        3.9716774798       18.5520390012
  C         9.6213308459        5.3127750561       18.3847062613
  H         1.7240079306        4.7386925096       25.9123453324
  H         3.0637533939        4.4347309022       27.0535131020
  C         1.4951775735        5.5156424695       27.9269965006
  S         6.2276167125       -2.7395816030       28.6509903967
  N         5.6137952191       -2.2339096505       30.0321568413
  C         5.2023989205       -0.0850220792       31.2121458283
  H         4.7118667050        2.0309293803       31.7469657454
  H         7.5597460089        0.7312345396       20.7256607341
  H         8.3483440784        0.8132528248       19.1711220886
  C         6.7139879578        2.1316525605       19.3051300058
  H        10.5805575323        0.8996271881       19.6527966269
  H        10.3452034595        0.7283823262       21.3885826402
  C        11.6681041782        2.3081867683       20.9569568517
  H         9.8781486337        3.2838700115       17.7919015716
  C         9.9517280227        6.0552206618       17.0857404336
  H         0.9429537271        4.6734833640       28.1689748662
  H         0.9063212640        6.4046684554       27.8074707186
  C         2.3893281580        5.7885573003       29.1095388937
  C         4.9699332544       -0.8074353080       32.4469799332
  H         7.1189606972        2.4926501941       18.4202384439
  H         6.4194531289        2.9589738199       19.9556550568
  C         5.4225923453        1.2542936262       19.0803213333
  H        11.4759782074        2.7926949601       21.9229494761
  H        11.7646689423        3.0660153939       20.2207397909
  C        12.9830998692        1.6407728005       20.8658083143
  C         9.8871126065        7.4627049861       16.9189847930
  C        10.1180542107        5.2762041143       15.8398519435
  H         3.2114905859        5.0640303230       29.0944292470
  H         2.9613157677        6.7197653983       29.0019631803
  C         1.6256915818        5.8403043700       30.4214006100
  H         4.7247888659       -1.8305850646       32.3209680388
  C         4.7929763771       -0.3615308589       33.7634738806
  H         4.9832391546        0.8413262572       19.9612895292
  H         5.6896985278        0.3776715520       18.4936358983
  C         4.3969188383        2.0029030883       18.2425887418
  H        13.0474728041        0.8471926600       21.5996245784
  H        13.0371936135        1.0907549645       19.8625049266
  C        14.1398772018        2.5951889302       21.0407279686
  N         9.5712534340        8.4312335786       17.9176887468
  C        10.3026224132        8.0432870537       15.7051236265
  C        10.3424992359        5.8689643534       14.6082300241
  H        10.0974371486        4.2582450063       15.8559472954
  H         0.8497209483        6.6339055457       30.4119377008
  H         1.2261057364        4.8286208595       30.6864191525
  H         2.3303077862        6.0020748154       31.2338660831
  S         4.5223102264        1.3073233039       34.2135547062
  C         4.6856733041       -1.4286423524       34.7528166084
  H         4.4785014892        3.0317206002       18.6012672945
  H         4.5329380969        1.9986240432       17.1244075009
  C         3.0076405996        1.5388165460       18.5630832033
  H        13.8255853614        3.5507594120       20.6766818739
  H        14.9421009815        2.3983731495       20.3060973519
  C        14.6032791977        2.7415172026       22.4821724413
  S         9.7584645199        9.8653246517       17.2585944896
  N        10.3353231995        9.4252647356       15.7716096617
  C        10.5225606446        7.3481415361       14.5351349963
  H        10.6066294410        5.3049920160       13.6967594270
  C         4.4448419204        0.5752462507       35.8695932622
  N         4.4520383450       -0.8260875897       35.9488967871
  O         4.9855946393       -2.5584497853       34.5396661067
  H         2.4158020934        2.0515350999       17.8728918667
  H         2.7494805811        2.0563753939       19.5034136763
  C         2.6625813310       -0.0114468435       18.5761390089
  H        15.3171654253        3.5755169469       22.5451092374
  H        13.7261450602        2.9603733857       23.0173605581
  C        15.1979306206        1.4401279408       22.9880037607
  C        10.8181554128        8.1410681924       13.3638935954
  S         3.9178185062        1.4805003105       37.2076358218
  C         4.6000886276       -1.5874501209       37.1605154639
  H         3.4400131708       -0.5338425963       19.0784282270
  H         1.7664289484       -0.1165083725       19.0610269828
  C         2.5928826880       -0.5670938171       17.1250017182
  H        15.2507948109        0.8089478763       22.1087858835
  H        14.4823123819        0.8814181291       23.6340034634
  C        16.5913245610        1.5834686335       23.6514672835
  H        10.6069959811        9.1889886476       13.5222270353
  C        11.3001521060        7.9468283817       12.1306544269
  H         3.8956333021       -1.3410226270       38.0017258964
  H         4.2981052498       -2.6163403193       37.0578739943
  C         5.9894010642       -1.5417673873       37.6685221669
  H         3.6199077970       -0.7175723836       16.7285555436
  H         2.2356514160        0.1687766194       16.4643110686
  C         1.7186390643       -1.8487978455       17.1293192474
  H        16.4125231233        2.4132244111       24.3308744624
  H        16.7548782663        0.6642528996       24.2231036057
  C        17.7982216704        1.8839530057       22.7225054175
  S        11.7354020456        6.4603794689       11.4414154003
  C        11.4127042823        9.0684347979       11.1414662601
  H         6.2722871912       -2.4324516388       38.2779755736
  H         6.6793838806       -1.4971341938       36.8934969908
  H         6.0578349480       -0.7160405427       38.2702981422
  H         1.8879754262       -2.3956358509       16.2145708570
  H         0.7098102323       -1.6877478115       17.4452578583
  H         2.1889154515       -2.4416317176       17.9300307041
  H        18.5910265393        2.3513443077       23.1860531035
  H        17.4592698582        2.3599911975       21.8320104625
  H        18.2138573502        0.9705351612       22.4548163476
  C        12.2793780572        7.2444755314       10.0118905446
  N        12.0784402571        8.5819011106       10.0618705150
  O        11.0301781789       10.2055826499       11.3481441918
  S        13.0244693913        6.4994154196        8.6182042970
  C        12.2790933991        9.4308335486        8.8633886482
  H        12.4681930450       10.4680853957        9.1605331480
  H        13.1244372801        9.0921254683        8.2443165419
  C        11.0495845363        9.4785255686        8.0020683974
  H        10.1440479369        9.1818352544        8.5821662626
  H        10.9751939628       10.5108826746        7.8128958797
  H        11.1382460343        8.9661651134        7.0177542774
  H        -4.0879242281       14.1267890365       16.1548519637
  C        -3.5419664666       13.1726134268       16.1500603925
  H        -4.3293586152       12.3913030715       16.3198015779
  C        -2.4304998006       13.1897045264       17.2437429337
  C        -3.0732771694       13.0087483506       14.6471120885
  C        -2.8865195203       13.2441684983       18.6426271861
  H        -2.0109964495       12.2275000146       17.1715955564
  H        -1.6928028531       13.9346662386       17.0450539902
  H        -3.9206173856       12.4212919253       14.2659261600
  H        -2.9555036881       14.0295059718       14.2457960794
  H        -2.2110084016       12.4241065981       14.4942677716
  C        -1.6539013644       12.9492892391       19.5430790332
  H        -3.7848637253       12.6526719641       18.8241078288
  H        -3.1724624742       14.2909381174       18.7923427142
  C        -2.0383373437       13.0960980778       21.0031862174
  H        -1.2816970736       11.9460482177       19.5272440277
  H        -0.7640409555       13.5831392373       19.2950054119
  C        -1.0608233043       12.5882809825       22.0955284385
  H        -2.9284042348       12.5950641391       21.1508830496
  H        -2.1999097058       14.1958358259       21.1059344805
  C         0.2012978596       13.3787086454       22.3028003132
  H        -1.5562917291       12.6593730991       23.0590438436
  H        -0.8567065897       11.5882910525       21.9064609970
  C         1.2912713841       12.7150113307       23.2033374256
  H         0.6974229609       13.6028940590       21.3425213554
  H         0.0192456430       14.3971091030       22.7494132553
  C         1.6317450618       11.3671266696       22.5633136009
  C         0.8104205876       11.9611380827       24.3892999654
  C         2.5547220085       13.6301357972       23.2825754226
  C         1.2311095789       10.2296716970       23.2652740530
  C         2.1255258838       11.0624714484       21.2827693940
  C         0.8060973300       10.6304768115       24.5050137040
  C         0.3398764520       12.6328785173       25.4963233743
  H         2.6691352760       13.9169702080       22.2037878502
  H         2.3956520605       14.5254389559       23.7971882082
  C         3.6689729396       12.8441331391       23.8383844093
  S         1.5611394251        8.7477547088       22.3814552411
  C         2.1629270486        9.6798632248       21.0803524852
  H         2.5736484568       11.9003988893       20.7300710711
  C         0.4469884722       10.0023344451       25.6991302190
  H         0.3375811301       13.6993992238       25.4413465168
  C        -0.0444577961       12.0691414664       26.6817894201
  H         3.8261837174       12.0537366255       23.0869159789
  H         3.4492177544       12.3394972210       24.7882607135
  C         4.9082562540       13.7126941515       23.9433352796
  C         2.5282943687        9.1059805158       19.7481399442
  C         0.0560059095       10.7208809860       26.8067094920
  H         0.6748837168        8.9647540712       25.7967319437
  C        -0.4102242815       12.4732169404       27.9293243446
  H         5.4143707729       13.4504539987       24.9185252292
  H         4.5442420537       14.6579339794       24.2528977134
  C         5.6540083807       13.8477555773       22.5918041043
  C         2.6029480156        7.6977044400       19.4923966925
  C         3.0046616810       10.0083998969       18.6768868861
  C        -0.3718697132       10.0805102338       28.0939082075
  C        -0.6144399519       11.4521990665       28.7610507015
  S        -0.6929165237       14.0229599220       28.6221332374
  H         6.3078537399       14.6814589324       22.6888166461
  H         4.8832811952       14.0490804496       21.8274541671
  C         6.4387709700       12.5741109604       22.1636775743
  N         2.4130093949        6.6365771553       20.4246539220
  C         2.8863423337        7.1974184419       18.2381912635
  C         3.3109437489        9.5303451869       17.4522577474
  H         2.9023960849       11.0805359562       18.7117514175
  C         0.7883086261        9.3852635238       28.7660464050
  C        -1.6922442224        9.2018866553       27.8917320289
  C        -1.0913243078       11.8701358130       30.0235164565
  C        -1.1537069365       13.2361506075       30.1202857789
  H         7.1450706559       12.3934877690       22.9449149475
  H         5.7429344558       11.7175265605       22.0576438480
  C         7.2354255207       12.6611614908       20.8995872503
  S         2.5184049500        5.2173743718       19.6045415667
  N         2.7121348780        5.7949269479       18.1051346019
  C         3.2807955643        7.9833273082       17.1537795596
  H         3.5504172848       10.2060297567       16.6295262265
  H         1.1689417872        8.6095729529       28.0663998555
  H         0.3854527964        8.8433626684       29.6326143640
  C         1.9191047972       10.3016892459       29.1213629029
  H        -1.2924352627        8.3718815235       27.2830549681
  H        -2.0254080522        8.8725956828       28.8663070720
  C        -2.7871604947        9.9904346796       27.1455742454
  H        -1.2056570583       11.0891840229       30.7422315993
  C        -1.4891211566       13.9903576253       31.4038913263
  H         7.5253808174       11.7023517374       20.5340389906
  H         8.1485753681       13.1283330929       21.1895973607
  C         6.6400771551       13.5560181719       19.7761004657
  C         3.5393499354        7.3910666432       15.9462471943
  H         2.3921768069       10.7501837764       28.2369407855
  H         1.5998702518       11.2000798642       29.7390120941
  C         2.8841065658        9.5236253668       29.9590999732
  H        -2.3705736447       10.2576909392       26.1707536588
  H        -3.0130231522       11.0052297102       27.5757019631
  C        -4.0783134701        9.1705952670       26.8857905155
  C        -1.5409767028       15.3911296236       31.5583709520
  C        -1.6063653038       13.1326861880       32.6181711155
  H         6.4018383244       14.5846748520       20.1230476388
  H         7.5028789711       13.7182766144       19.1550268694
  C         5.5197101669       12.8589270291       18.9407230713
  H         3.6685417578        6.3250710953       15.9807946328
  C         3.6940698499        7.8800190995       14.6842097914
  H         3.5608005231        8.9541491157       29.3744597232
  H         2.3095231899        8.7522835188       30.5267253124
  C         3.7659208033       10.3309057552       30.8777694041
  H        -3.8922073947        8.2884706032       26.2617878012
  H        -4.5050324320        8.9032469216       27.8594849266
  C        -5.0603154156       10.0093679891       26.0676194180
  N        -1.3061224822       16.3296074256       30.5122450256
  C        -1.9382096081       16.0792018532       32.7096724070
  C        -1.9731633796       13.7957626037       33.8006231873
  H        -1.4044930740       12.0769783370       32.5514908839
  H         5.8126157985       12.2450743291       18.0951586268
  H         4.7255302826       12.4284055146       19.5688681618
  H         5.0292788134       13.6906500231       18.3684063844
  S         3.8988539918        9.5303815051       14.2744176538
  C         3.7193057279        6.8920958167       13.5820366378
  H         3.8654652265       11.3607335504       30.4385363244
  H         3.3437273326       10.3843322144       31.8614942068
  C         5.1921568646        9.7837419681       31.1443801685
  H        -4.5728107225       10.0285704511       25.1216675462
  H        -5.0524451991       11.0867715541       26.3388359867
  C        -6.5161691847        9.4533797180       25.9331754600
  S        -1.5137139058       17.8994312544       31.0835467778
  N        -1.8729365992       17.4951760357       32.6210515110
  C        -2.1831899919       15.2609649530       33.8902182597
  H        -2.1308857102       13.2358996838       34.7818155572
  C         4.0845061300        8.9018154897       12.6217285340
  N         3.9369520584        7.5527601462       12.4860016177
  O         3.5333343517        5.6456396976       13.7934074879
  H         5.5068958286       10.2348851858       32.0738621997
  H         5.8589180739       10.0860706731       30.3667392486
  C         5.1739996765        8.2874918004       31.5752248777
  H        -6.4213943476        8.5035638007       25.3670546986
  H        -6.7900953807        9.1901992856       26.9468663198
  C        -7.4157707144       10.4992366501       25.2180495577
  C        -2.4749241291       15.9059763017       35.1035200720
  S         4.5363171291        9.8770102329       11.2241781222
  C         3.9699304964        6.9379712880       11.1559536473
  H         5.5516074023        8.3262006207       32.6198248866
  H         4.1158710324        8.0267648252       31.7666868721
  C         5.8500405487        7.2484229834       30.5993775111
  H        -7.0455491153       10.7745919751       24.2287042923
  H        -7.4815477362       11.4706238602       25.6808046263
  C        -8.7312616821        9.9458958694       24.7607756219
  H        -2.4403259196       16.9770570136       34.9195489493
  C        -3.0255110560       15.6422090792       36.3076325539
  H         4.4230988382        7.5562305587       10.3602215221
  H         4.7363685814        6.1871141821       11.2791018337
  C         2.6409976326        6.3408766419       10.7115291100
  H         6.8990425317        7.4757208880       30.4520605272
  H         5.2177368594        7.2085656802       29.7035006054
  C         5.7258835093        5.8276644854       31.2525200900
  H        -9.0590935598       10.6163066488       23.9239530183
  H        -8.6832879208        8.9120731726       24.5055243154
  C        -9.6462617329       10.2642310183       25.8991476228
  S        -3.4289268648       14.0958304424       36.9672930942
  C        -3.2467509068       16.7878834326       37.2042637357
  H         2.7835430467        5.4750838919       10.0080380909
  H         1.9543186033        6.0336839033       11.5543032787
  H         2.1061809815        7.2278786565       10.2360776379
  H         5.5811627940        6.0326538132       32.2673630116
  H         6.6452081912        5.2298100408       31.1964338145
  H         4.7870699979        5.2556173427       30.9285644376
  H        -9.7396836731       11.3539235302       26.0522530444
  H        -9.2249515651        9.8263058679       26.8016410701
  H       -10.5899668868        9.8143326620       25.7665275110
  C        -4.1248911151       14.9518711039       38.3227148641
  N        -3.8044697295       16.2884904035       38.3359538212
  O        -2.8450785280       17.9243125721       37.0069328743
  S        -5.1959231596       14.4532099036       39.6139235379
  C        -4.1216591113       17.2269179297       39.4303878233
  H        -4.3561671437       18.2115098977       39.0711052353
  H        -5.0045573688       17.0916257156       40.0585658766
  C        -2.8873320204       17.3150021002       40.2892245599
  H        -2.7348971737       16.2626684940       40.7453481531
  H        -1.9919622660       17.5001471696       39.7369500646
  H        -2.9824125165       18.1394361303       41.0656099848
