352
 i =    92700, time =    92700.000, E =        25.1079932331
  H        10.5195995669        6.8032052894       31.7911057155
  C        11.5342974203        6.3301652775       31.9868612548
  H        12.2931276919        7.1080747507       32.2495425448
  C        11.9875897245        5.5773580519       30.6914914039
  C        11.3315225894        5.3729524429       33.1302166477
  C        10.8048039658        5.1064820774       29.7946518019
  H        12.5657197652        6.2012335590       30.0404703542
  H        12.6723914427        4.8114583079       30.9412622327
  H        12.0925902534        4.6211643860       33.3176967305
  H        11.2036702465        5.9352806681       34.0748305183
  H        10.3187412041        4.9107016488       33.0022809724
  C        10.2183465486        6.1483705203       28.8974263007
  H        10.0080765478        4.7222939422       30.3912196828
  H        11.1417271530        4.2187833711       29.1991665129
  C        10.6984472463        5.9844311472       27.4735816173
  H         9.1524833412        5.9426796953       28.8671751980
  H        10.3848441597        7.1248734338       29.3263413047
  C         9.7454720642        5.1371425593       26.6582907299
  H        11.7449483525        5.5576311802       27.4727568341
  H        10.8045326489        6.9320237294       27.0113416194
  C         8.4254035107        5.8107722247       26.2183189533
  H        10.2738125305        4.6236305172       25.7940256851
  H         9.3961188671        4.2561479665       27.2996086817
  C         7.4826137878        4.8395227173       25.4462043056
  H         7.8238717953        6.0879102816       27.0794617298
  H         8.5799334718        6.7885864152       25.7030233034
  C         7.2432553008        3.4953170731       26.1608113063
  C         8.0704877363        4.1106680688       24.2766302533
  C         6.0830584716        5.3665490977       25.0036049368
  C         7.5335017317        2.3956790027       25.3841924813
  C         6.5721859217        3.0962112280       27.3246180726
  C         8.0846298172        2.7783190463       24.1321139766
  C         8.4203128333        4.8553376932       23.1453018164
  H         5.7184033679        4.5634862635       24.3667874074
  H         6.2607423041        6.1004517359       24.3211314171
  C         5.1189935321        5.8741523348       26.0935107445
  S         7.1713740991        0.8780044384       26.1850644423
  C         6.4168162315        1.7245015052       27.4488200309
  H         6.2825031260        3.8718958691       27.9838885611
  C         8.5571341142        2.2065533516       22.9720596296
  H         8.4166702994        5.8894881849       23.0577847816
  C         8.7670543035        4.2894287794       21.9724006645
  H         5.3187896594        5.3463352272       26.9580556459
  H         5.1737881657        6.9298433916       26.3604232093
  C         3.6443943943        5.5414540352       25.7551732180
  C         5.8746656067        1.0617945636       28.6458365303
  C         8.8556670939        2.9465902376       21.8185332969
  H         8.7087283268        1.1411650662       22.8112047092
  C         9.1371673247        4.7315749207       20.7070542791
  H         3.5222220645        4.4652452720       25.7063043549
  H         3.3982706065        5.9751876515       24.6959189405
  C         2.5986013381        5.9925175359       26.7339871653
  C         5.9365710099       -0.3481637290       28.9103254727
  C         5.3751377887        1.8568123291       29.8340291786
  C         9.2933995959        2.2808884780       20.5639477852
  C         9.4228032578        3.6519989706       19.8581443841
  S         9.3809010357        6.3056029316       20.0199387976
  H         1.7487056249        6.3668682995       26.1534986214
  H         2.8792784489        6.8936018543       27.3837213040
  C         2.2424585075        4.7498875512       27.6819111564
  N         6.3259549009       -1.3003157190       28.0161693815
  C         5.7417190213       -0.9246033736       30.1721535197
  C         5.1131511837        1.2604336867       31.0855898921
  H         5.2870509278        2.8993669812       29.7364923773
  C         8.1734016878        1.4567518232       19.8056109670
  C        10.6137704734        1.5244892085       20.7711233365
  C         9.8424242307        4.1644146500       18.6180511714
  C         9.8840287355        5.5787512138       18.5614195993
  H         1.5537901722        3.9879307194       27.1631268890
  H         3.1146366382        4.1461989583       27.9671289719
  C         1.4458099244        5.0242246614       28.8943226123
  S         6.5204244032       -2.7809172299       28.6747478851
  N         5.8930773615       -2.3545570315       30.1099296490
  C         5.2861651493       -0.2083079530       31.3262084448
  H         4.8917645153        1.8925954438       31.9333762802
  H         8.3172315603        0.3764411891       20.1121218640
  H         8.3541987065        1.5815247175       18.7154686053
  C         6.6528396167        1.8145691755       19.9819433379
  H        10.9869335311        1.1066371922       19.7894807961
  H        10.4273671977        0.6852409517       21.4244315149
  C        11.7617356674        2.3278718726       21.3717693017
  H        10.0980084689        3.4611401623       17.8137123782
  C        10.2405523942        6.3554322721       17.3305786773
  H         1.1919989341        4.0025229409       29.2078076251
  H         0.4665951021        5.4370706224       28.6043888997
  C         2.0705352967        5.7516923956       30.0466691859
  C         5.1796969630       -0.9114881828       32.5983753378
  H         6.5369174111        2.8600575278       20.3419940703
  H         6.3082684588        1.1705490805       20.8221853386
  C         5.7788403618        1.5073924303       18.7574833641
  H        11.5383751901        2.8208322616       22.2552298622
  H        12.1501675414        3.1057532973       20.7093025797
  C        12.9535502327        1.4803358219       21.7661427719
  C        10.1712389226        7.8314902592       17.1517891181
  C        10.4909528582        5.6273633283       16.0837323624
  H         2.8574332625        6.4345065436       29.6335419066
  H         1.5087591499        6.4801535079       30.5891063353
  C         2.7691920838        4.8119192030       31.0189452130
  H         5.1742359180       -1.9444748421       32.4978253295
  C         5.0285883942       -0.4291733125       33.9012499116
  H         6.0248937104        0.5994015953       18.1985343687
  H         6.0735017508        2.3004562316       18.0075766503
  C         4.2849129419        1.6859410060       18.9461016329
  H        12.5691084551        0.6556817389       22.3993843051
  H        13.3038590023        0.9386331008       20.9565847183
  C        13.9743996968        2.3752171995       22.4665761392
  N         9.8596244860        8.7574044503       18.1452532560
  C        10.5492962181        8.4605204430       15.9906630655
  C        10.7635836265        6.2464763433       14.8475094104
  H        10.4755190890        4.5084856736       16.0384365562
  H         3.4320442731        5.3492217194       31.7170071651
  H         2.0858408585        4.2875126196       31.6987242120
  H         3.4518781452        4.2353697936       30.5011770300
  S         4.5981266601        1.1687636779       34.3348755139
  C         5.0157780712       -1.3999630177       35.0313347810
  H         3.9495075206        2.4587795911       19.6451628102
  H         3.9994775193        2.0729312398       17.9907307053
  C         3.5677132297        0.3998734295       19.5019852722
  H        13.5891098566        2.8247682241       23.4177836844
  H        14.1836634999        3.1892374985       21.7934065438
  C        15.2664505591        1.6714682905       22.6192540988
  S         9.9131243086       10.2557237148       17.6393625260
  N        10.3999090595        9.8794538081       16.0849145660
  C        10.9950602989        7.7262209654       14.8291120526
  H        10.9664796021        5.6337337230       13.9380501847
  C         4.6108710095        0.4745017839       36.0267300261
  N         4.5911655367       -0.8625908611       36.1635892400
  O         5.0904691778       -2.5953061700       34.7722520782
  H         2.5572916890        0.6958718718       19.7712120950
  H         4.1030561060        0.1040492109       20.3796240654
  C         3.4708065213       -0.6878757730       18.3960309881
  H        15.0689487889        0.7182884854       23.1655765252
  H        15.6137272855        1.3436400706       21.6007853191
  C        16.3150062046        2.4148957076       23.4379146457
  C        11.2723769033        8.5155420896       13.6991168463
  S         4.1749941022        1.3432149842       37.4932687042
  C         4.5372072347       -1.6136007802       37.4260893091
  H         4.0237009902       -0.3766380346       17.4684213186
  H         3.9599181404       -1.6352201064       18.6206405801
  C         2.0030190173       -1.0303601523       18.1165044863
  H        15.7830391789        2.6831408316       24.3488905031
  H        16.5191381692        3.4071580053       22.9977869002
  C        17.4549113964        1.5691895596       24.0094680563
  H        11.0511511439        9.5504580122       13.8395633491
  C        11.7687389804        8.1386431294       12.4548203591
  H         3.8624279736       -1.0126680238       38.1176737538
  H         4.1292821103       -2.5943764728       37.4927459371
  C         5.9031715297       -1.6297139286       38.0191713483
  H         1.4460999700       -0.0729663307       17.9477409235
  H         1.4925449164       -1.4993310184       18.9946805356
  C         1.6847694847       -1.9573877123       16.9293808309
  H        17.7376580808        1.7922010589       24.9911818001
  H        16.9540350410        0.6011169285       24.0358790432
  C        18.6823891774        1.4972707628       23.1988023605
  S        12.3326429520        6.5491010793       11.9836028161
  C        11.9215157318        9.2179734740       11.4867025049
  H         6.1169371619       -2.1635624966       38.9930263086
  H         6.7078103657       -2.0950733731       37.3337924745
  H         6.1723275884       -0.5976597728       38.2642520478
  H         1.8310958312       -3.0208086618       16.9662754349
  H         2.1892649052       -1.6415619458       16.0600345590
  H         0.6840721792       -1.9389992662       16.6588803428
  H        19.4927504622        0.8492001326       23.5537262201
  H        19.0704276088        2.5216601345       23.1934523531
  H        18.4888681589        1.2697750971       22.1888905507
  C        12.5546531463        7.3738395898       10.3907896996
  N        12.3072106974        8.6879547796       10.3657605627
  O        11.6345976392       10.3934638266       11.6711569552
  S        13.1512196821        6.4970701210        8.9384605860
  C        12.3664414096        9.5614826618        9.1715567013
  H        13.0333456338       10.4075295232        9.3595581510
  H        12.9842459177        9.0741209024        8.4403422113
  C        10.9362538361       10.0432073863        8.7228448102
  H        10.1538538119       10.4077553807        9.3780599691
  H        11.0118402608       10.9292292749        8.0542473975
  H        10.3965438837        9.2269899632        8.2053275551
  H        -3.2932577719       15.2985729950       16.4431550351
  C        -3.2718882205       14.1322545309       16.5295123454
  H        -4.1978481388       13.7912356508       16.7875671306
  C        -2.2595274898       13.7590375510       17.6205079363
  C        -2.8718714011       13.5502437056       15.1939487280
  C        -2.8055956577       13.7596991911       19.1075602114
  H        -1.7228778870       12.8443183305       17.4491540614
  H        -1.4397326351       14.5652889208       17.5838854308
  H        -3.6318728706       12.7148535229       14.9551626461
  H        -2.7881238230       14.3603542075       14.4618651963
  H        -1.8404175429       13.1069731935       15.3965096463
  C        -1.6986695105       13.5248508850       20.0107303801
  H        -3.6490173046       13.1092709251       19.2828515317
  H        -3.2110647046       14.8394738078       19.1792075660
  C        -2.2070903113       13.6582897594       21.4283751850
  H        -1.2641052905       12.5958938871       19.7951643043
  H        -0.9133706439       14.3969877261       19.8265350030
  C        -1.1475238769       13.0437197380       22.3771671596
  H        -3.0892537403       12.9548178866       21.5892597103
  H        -2.5860479706       14.6285239297       21.8047324145
  C         0.0724351616       13.9399702193       22.6612896108
  H        -1.5688720616       12.7964474488       23.4111290146
  H        -0.7976183917       12.0553959528       22.0143890733
  C         1.1971596424       13.1452867898       23.4282421706
  H         0.5978564542       14.3498698037       21.7538509828
  H        -0.3768029191       14.7058928298       23.2677903623
  C         1.5501121688       11.8011773568       22.7794166613
  C         0.7452944322       12.4274779832       24.6964569273
  C         2.4271885480       14.0265522678       23.7533023568
  C         1.4134739115       10.7158996775       23.6244009766
  C         2.1264258168       11.4206198540       21.5391288618
  C         0.9116721358       11.0890224292       24.8499120918
  C         0.1459294948       13.0001998363       25.7540504326
  H         2.5165162263       14.7860158332       22.9665093802
  H         2.2595315706       14.5869524163       24.6714366514
  C         3.7176322419       13.1998149812       23.8730673463
  S         1.8924438593        9.2167985581       22.8774386762
  C         2.3177521274       10.0558805671       21.4425292925
  H         2.4027704591       12.2283348651       20.7715354497
  C         0.3970476701       10.3989264283       25.8966806358
  H         0.0473241684       14.0784198718       25.6678658189
  C        -0.1767213643       12.4266936954       26.8929757050
  H         4.0272593968       12.9247013324       22.8463237485
  H         3.6817536838       12.2141004501       24.3103161867
  C         4.9358184578       13.9489728104       24.4646162378
  C         2.7318243961        9.3519585401       20.1821360272
  C        -0.1419808484       11.1186289139       27.0252823246
  H         0.5110272483        9.2944045343       25.8733556485
  C        -0.5845572071       12.7944368044       28.1607487186
  H         5.4290903049       13.2233250352       25.1749735849
  H         4.5781407670       14.8551931679       25.0866732883
  C         5.9778210006       14.3037817651       23.4002527291
  C         2.7372861821        7.9481005457       19.9854539394
  C         2.9859599277       10.1083298480       18.8535850577
  C        -0.5543807809       10.2849852347       28.2500823899
  C        -0.8470484061       11.6640066809       28.9072748249
  S        -0.6310523452       14.3074917793       29.0362396118
  H         6.5797550003       15.1056935782       23.7905103789
  H         5.3888632180       14.7824136127       22.5594476375
  C         6.8429985871       13.0965849884       22.9881883144
  N         2.3961683734        6.9882223656       20.9401456207
  C         2.9951536229        7.3506259237       18.7550919252
  C         3.2539119497        9.5259191589       17.6170416073
  H         2.7784846048       11.1602265003       18.8487923738
  C         0.6546548606        9.5888714008       28.9531248469
  C        -1.7886187309        9.3425945709       28.0669556734
  C        -1.1454491450       12.0773139640       30.2348780780
  C        -1.0657261851       13.4469956119       30.4305023774
  H         7.6191957223       12.9910014617       23.7330146110
  H         6.2621706660       12.1421283583       22.8512251707
  C         7.6821698868       13.3732772949       21.7347662614
  S         2.3935695831        5.5424372761       20.2513979252
  N         2.8685589041        5.9475497256       18.7766308594
  C         3.2972216807        8.0512783924       17.5301111014
  H         3.2898602831       10.1991351039       16.6694772646
  H         0.9644050640        8.6308959617       28.4954871335
  H         0.2778351688        9.3219155673       29.9417979788
  C         1.9520214344       10.3901477523       29.1533486957
  H        -1.7951162088        8.5598169424       27.3368035609
  H        -1.8048052807        8.8215465201       29.0817153412
  C        -3.0698780838       10.0401205808       27.6554063356
  H        -1.3902936332       11.3194563720       30.9712313120
  C        -1.3701997208       14.1526839083       31.7276213960
  H         8.6179498397       12.8362943280       21.8719580240
  H         7.9944448966       14.3248958166       21.6702980102
  C         6.8937157310       13.0580974679       20.4609443314
  C         3.5701639376        7.2717465996       16.3445899897
  H         2.3529628657       10.6605751599       28.1918330831
  H         1.8134663765       11.3745678906       29.6786048661
  C         2.9835837251        9.7569700130       30.1386796708
  H        -2.8520266315       10.5317279418       26.6861215477
  H        -3.4293780237       10.6996385926       28.4014381081
  C        -4.1263567867        8.9434934674       27.3101377898
  C        -1.4403952086       15.5727519903       31.9149560394
  C        -1.7386553020       13.3423424879       32.8651315566
  H         6.3835884732       12.1208040177       20.5386432431
  H         6.1649621600       13.8259406777       20.4240404879
  C         7.8714607523       12.9360412467       19.2186301116
  H         3.7843807723        6.2651458291       16.4713371993
  C         3.8026684353        7.6169208941       15.0081428842
  H         3.1606163170        8.7202247202       29.9563666937
  H         2.4796792215        9.9030628138       31.1293705170
  C         4.2865709455       10.5080323412       29.9942646589
  H        -3.8889137210        8.5499012485       26.3148872744
  H        -4.0587296996        8.0581255526       27.9065354470
  C        -5.5450215218        9.4743735571       27.2868577918
  N        -1.1931145808       16.5567827686       30.9323144472
  C        -1.7027190444       16.1305763013       33.1502969299
  C        -1.9021316971       13.8533206422       34.1330851568
  H        -1.5826827052       12.2307774482       32.6897643911
  H         8.6923194040       12.2278000974       19.4235265793
  H         7.3842835942       12.6089264417       18.3188500611
  H         8.3200631112       13.9596269270       19.1778143697
  S         3.8964616839        9.1848755217       14.3367851328
  C         3.9058165293        6.4420316445       14.0364052047
  H         4.6724403756       10.6505068672       28.9184958969
  H         4.1135156391       11.5150970410       30.4071940798
  C         5.3758636626        9.8450494154       30.8204253005
  H        -5.5964841048       10.4331964345       27.7427379194
  H        -6.2619748662        8.8161879867       27.8857612791
  C        -5.9877720580        9.6510826472       25.7578342794
  S        -1.2640276408       18.0551538060       31.6187354809
  N        -1.7739774914       17.5535617569       33.0990466060
  C        -1.9203917424       15.3399613624       34.3043198310
  H        -2.1177498769       13.1368265939       35.0018722067
  C         4.0547647698        8.3639473546       12.7646681133
  N         4.0740562766        7.0232558786       12.8169238347
  O         3.8970483627        5.2482861996       14.3240487414
  H         4.9705621804        9.3378665453       31.7200938859
  H         6.1819614096       10.5483099481       31.1304918391
  C         6.0783477113        8.7620274967       29.9193026841
  H        -5.0198677726        9.7529422712       25.2330306998
  H        -6.4079208500        8.6734640584       25.3657906092
  C        -6.9986973891       10.7758656864       25.5075174990
  C        -2.2861598097       16.0534908915       35.5095094782
  S         4.4378270928        9.0594380756       11.2676223484
  C         4.1256291820        6.2156813401       11.5335728911
  H         5.6957888850        8.7478549760       28.9305938090
  H         7.0681455916        9.0442516574       29.7789216226
  C         5.9153657993        7.2688944138       30.3034981360
  H        -7.2138266180       10.7272495319       24.4188022727
  H        -6.5378169111       11.7312710549       25.7899682695
  C        -8.2471940774       10.6423110754       26.2845957065
  H        -2.0019757620       17.1295424474       35.4508112840
  C        -2.8822654519       15.6001503729       36.6752427472
  H         4.6809957200        6.6917759301       10.7040277321
  H         4.5465485180        5.2297847445       11.8573604988
  C         2.6111896917        6.1109486734       11.1495767237
  H         5.7997178411        6.7064789545       29.3535173004
  H         4.9557650574        7.2163294646       30.7454214459
  C         6.8678155307        6.5439450028       31.2840759859
  H        -7.8395733478       10.3627565612       27.2822850212
  H        -8.7087774638       11.6461159993       26.3985812246
  C        -9.2693445955        9.6598380243       25.7801582336
  S        -3.4203655307       13.9655963706       37.0786703084
  C        -3.1304709216       16.5687669996       37.7299140606
  H         2.6457727044        6.2131725191       10.0875103361
  H         2.0124726478        5.2716131529       11.5313688454
  H         2.1069819871        7.0055946925       11.4051628723
  H         6.8268187580        6.9612799738       32.2492458950
  H         7.9523061874        6.6086203610       30.9812103577
  H         6.6274898415        5.5364772139       31.4272737339
  H        -9.0443557081        8.6735751922       26.2078724634
  H        -9.1682892817        9.6114226184       24.7011456018
  H       -10.3303950857        9.7886583862       26.0022575003
  C        -3.8202164356       14.5848794349       38.7107171881
  N        -3.6693505009       15.9502113344       38.7655374327
  O        -2.8702858076       17.7964615014       37.6325123659
  S        -4.5661106252       13.7218881621       40.0452227680
  C        -3.8923853371       16.7570574807       39.9901162544
  H        -3.9343306246       17.7870999394       39.6795183121
  H        -4.8767586597       16.5334903016       40.4569474365
  C        -2.6935691023       16.6227572503       40.9379377855
  H        -2.6428697121       17.4188781169       41.6678629755
  H        -2.7542046059       15.6663545204       41.4887117726
  H        -1.6999076259       16.6626897593       40.4159822452
