352
 i =    13000, time =    13000.000, E =        25.5737621028
  H        12.1132737434        6.8299104710       32.5145800081
  C        11.6161088044        5.8398705085       32.4784472643
  H        12.2832857602        4.9685040418       32.3580408812
  C        10.6381921607        5.8094786765       31.3274406753
  C        11.0156826950        5.6605218473       33.8824736982
  C        11.3354489320        5.8046861640       30.0702985599
  H        10.0663490312        4.9466944948       31.3925358777
  H         9.8947167774        6.6197720385       31.3774970701
  H        11.5524718255        6.2997869888       34.5483904083
  H         9.9862440051        6.0125423452       33.7492244802
  H        11.1129405288        4.6475810384       34.2061901624
  C        10.3931523807        6.0333585094       28.9671631532
  H        11.8157258786        4.8156622836       29.9321572892
  H        12.1974078581        6.4581819229       30.0729642488
  C        11.0209674699        5.7204272668       27.5438734107
  H         9.4543585974        5.5361246741       29.1281141446
  H        10.0905206122        7.0878962099       28.9992607372
  C         9.9253342438        5.0476319058       26.7160235582
  H        11.8140504875        4.9811195878       27.4875109302
  H        11.2524019243        6.6094762339       26.9969999621
  C         8.6169755857        5.8250254624       26.4813171529
  H        10.4012510321        4.7433877674       25.8364485608
  H         9.7492898115        4.0659820059       27.1403240700
  C         7.5060237795        5.0791912396       25.7410227876
  H         8.1442310762        6.2523422206       27.3480156661
  H         8.9873582286        6.6616400626       25.8920886254
  C         7.3023685889        3.7818579021       26.4955254367
  C         7.9265596232        4.4018622063       24.4756980089
  C         6.1991695629        5.9943745193       25.5511376795
  C         7.4023239318        2.6804161614       25.6474415743
  C         6.6474107818        3.4999680100       27.7060479039
  C         7.8720521189        3.0916649096       24.3955573732
  C         8.3640191624        5.0993341864       23.3328228302
  H         6.4564531186        6.8355326398       24.8375063225
  H         5.9440020887        6.4584259441       26.4640167576
  C         5.0191012676        5.2299944773       25.0423869948
  S         6.9870468991        1.2327310930       26.4072830093
  C         6.5215889060        2.1170920617       27.8167972722
  H         6.5170082760        4.3013858751       28.4282916535
  C         8.1435060251        2.4689149814       23.2365807564
  H         8.3743499934        6.2163812918       23.4206350467
  C         8.7198992605        4.4843163158       22.1557906437
  H         5.1614090104        4.8621559283       24.0052634635
  H         4.8798381674        4.3502235611       25.6333105615
  C         3.7929853366        6.1652274640       25.0247589811
  C         6.0072018907        1.5111182558       29.1143305503
  C         8.6841528862        3.1250482954       22.0392427010
  H         7.8835081869        1.4414017071       23.1042166529
  C         9.0351127981        4.8824465939       20.8633217897
  H         2.9741961773        5.8475719752       24.3803443106
  H         4.0846376345        7.1959503338       24.6008460165
  C         3.0975960893        6.2159056699       26.3732764825
  C         6.0528505207        0.1071772712       29.3977852042
  C         5.4511179166        2.4154452319       30.1671472259
  C         9.0176390125        2.4176850873       20.7419833133
  C         9.3212709769        3.8046333905       20.0862797422
  S         9.1944901942        6.3838168900       20.0934144384
  H         2.4424721363        7.0653201584       26.5595814708
  H         3.8293908169        6.2727940562       27.1423337664
  C         2.2144135852        5.0034031102       26.8001791627
  N         6.3753127485       -0.8646401687       28.4541187550
  C         5.7654181904       -0.4452683881       30.6537122838
  C         5.0280004024        1.7744815964       31.3267470978
  H         5.3488739713        3.5131218704       30.1085961407
  C         7.8351151428        1.7302755500       20.0154972603
  C        10.2495793587        1.5151297063       20.8358891904
  C         9.5979712270        4.1697965637       18.7615561843
  C         9.5894398248        5.5416652300       18.6244380462
  H         1.8192120820        4.6067433736       25.8430647818
  H         2.9102885231        4.2073149466       27.0708515340
  C         1.2023455005        5.3345783757       27.8475580917
  S         6.5148689488       -2.3383945386       29.2669121055
  N         6.0784695931       -1.7942844298       30.7455741366
  C         5.3081512011        0.3263478873       31.6754127059
  H         4.5663452553        2.3705334093       32.0668131832
  H         7.6353564049        0.8416313077       20.6054778916
  H         8.1271803306        1.2470262653       19.0499092929
  C         6.5431336429        2.5847495097       19.7678095345
  H        10.1443541156        0.8001205626       19.9550439868
  H        10.1031787647        0.9912416290       21.8064922977
  C        11.5911300807        2.2170352178       20.9306686536
  H         9.8400477358        3.4425778272       17.9547151736
  C         9.8868541946        6.3581163939       17.3765311508
  H         0.5338881972        4.4464131786       27.9574051876
  H         0.5325557589        6.1113794809       27.3952329483
  C         1.8525339395        5.6581692725       29.1943635347
  C         5.0770318917       -0.3344186470       32.9183950659
  H         6.7429896001        3.2392541516       18.9257495371
  H         6.1804524255        3.2211549208       20.5927814045
  C         5.4006445273        1.6062513479       19.3693940125
  H        11.5297276112        2.9702934913       21.7463962871
  H        11.7414156688        2.7569015970       19.9734087352
  C        12.8412143583        1.2585979342       21.1606933394
  C        10.0494379033        7.7432475570       17.2480883540
  C         9.8710910717        5.5832272568       16.1057452097
  H         2.7009693648        5.0373106656       29.4406756846
  H         2.2024396850        6.7100151722       29.0432814913
  C         0.8597281577        5.5104339747       30.3066924634
  H         5.2136204950       -1.4355313094       32.8329035734
  C         4.8232831952        0.0986124274       34.1700456171
  H         5.1466125336        1.0289702304       20.2712329535
  H         5.7143010959        0.8970935969       18.6702095091
  C         4.1527576520        2.4409451788       19.0474557400
  H        12.6593499867        0.6327178054       22.0585397981
  H        12.8890804356        0.3762740893       20.4868543134
  C        14.1567397417        1.9974746610       21.0743843675
  N         9.7376764312        8.7094313006       18.2357127488
  C        10.2765098165        8.3246824532       16.0017240084
  C        10.4425823964        6.1480313896       14.9544635427
  H         9.6877258343        4.4710209678       16.0549083748
  H         1.0205978941        6.1746832201       31.1422640072
  H        -0.1069688027        5.8768794821       29.8551692628
  H         0.7395868459        4.5207643330       30.7450854391
  S         4.4958506997        1.6708046744       34.6504577807
  C         4.7023237472       -0.9000043408       35.2139400447
  H         3.9153205402        3.0550658190       19.9593510181
  H         4.6312537895        3.1514819722       18.2929506610
  C         2.9358639721        1.7448839216       18.4826255934
  H        14.0694512219        2.7703793814       20.3205773373
  H        14.8849651107        1.3316280875       20.5614288186
  C        14.5856192125        2.5221268284       22.4267240114
  S         9.7789070377       10.1272489067       17.4947782751
  N        10.2703984016        9.7349800504       16.0081149963
  C        10.6879592008        7.6179456945       14.8432990024
  H        10.5562559033        5.5244785642       14.1047298832
  C         4.2541029701        1.0738761957       36.2152462466
  N         4.4500589538       -0.2412519494       36.3876449469
  O         4.7680948750       -2.1243675136       35.0779371845
  H         2.3320765982        2.5770520817       18.1227195191
  H         2.3298008395        1.3292272640       19.3042190459
  C         3.1555787812        0.8191568279       17.2516995863
  H        15.3113438969        3.3563778052       22.3010086497
  H        13.7381730320        2.9329796427       22.9784175947
  C        15.0614908355        1.3298355318       23.1833835644
  C        11.0323480623        8.2554154327       13.6503915958
  S         4.0361313602        2.1039452987       37.6561917865
  C         4.4804476586       -0.9166998884       37.7208013014
  H         2.4680999798        0.9900406989       16.3629850695
  H         3.9739982526        1.2475982721       16.7444771743
  C         3.3697523280       -0.7115651706       17.4756054423
  H        14.9257954180        0.4325793477       22.6948129797
  H        14.3996993091        1.2892869528       24.0134828304
  C        16.5452883904        1.6650693846       23.5607913615
  H        10.7448029488        9.3480535495       13.5940631701
  C        11.5001796701        7.8555487575       12.4443401365
  H         3.7646862334       -0.4119348863       38.4046394213
  H         4.0935016549       -1.9434673801       37.6846126448
  C         5.9828852288       -0.9280549790       38.2544896603
  H         3.7107066723       -0.8521175756       18.4776539986
  H         4.2126092522       -1.0430796698       16.8611775451
  C         2.0979581716       -1.4502701169       17.2246031100
  H        16.5447922547        2.6497284024       24.1424801606
  H        16.8807991771        0.9640145062       24.2919955427
  C        17.5266467564        1.7966080019       22.3519063569
  S        11.9622203114        6.2676427310       12.0343766147
  C        11.6496984585        8.7878163462       11.3387471969
  H         6.0770965542       -0.9107345263       39.3130052556
  H         6.5031141215       -1.8926863467       38.1019600642
  H         6.5397014510       -0.2247830213       37.7558507075
  H         1.2811351383       -1.1077462697       17.8079621498
  H         2.0084800603       -2.5120895343       17.4069312201
  H         1.8255421928       -1.3198934025       16.2259148514
  H        17.0331367979        1.7176922369       21.4202555013
  H        18.3354911297        1.0285920671       22.3708110148
  H        17.9935192225        2.7750744922       22.1794670273
  C        12.1428854171        6.8119013356       10.3590982758
  N        12.0476665647        8.1546101470       10.2202769300
  O        11.5784047169       10.0195326012       11.4126010362
  S        12.8387292026        5.8353417236        9.0005976286
  C        12.5031032380        8.8100904399        8.9581555325
  H        12.9022177377        9.7970353130        9.2145942996
  H        13.3243446552        8.3014281103        8.3187348812
  C        11.2889813765        9.0885036418        8.0375513459
  H        11.2499007465       10.1355327317        7.6873460253
  H        11.3831387886        8.4388456821        7.1981218503
  H        10.3256748446        8.8369111336        8.5354250355
  H        -2.9185348579       15.1180781532       16.6059969780
  C        -2.7258499010       14.0023264942       16.7561371813
  H        -3.7276808250       13.5077998955       16.9831469680
  C        -1.7933148500       13.9876964728       17.9020468197
  C        -2.0486990914       13.5454197472       15.4590131454
  C        -2.4800948432       13.7196959159       19.2560032626
  H        -1.0609174117       13.2059427507       17.6675742929
  H        -1.3670505720       14.9651967583       17.9498801191
  H        -1.4269491810       12.7101910050       15.5963677737
  H        -2.7342626465       13.2633089282       14.7168338666
  H        -1.3301302634       14.2493569996       15.0780333238
  C        -1.3576892319       13.7708818267       20.3087845649
  H        -2.7972084466       12.6876919106       19.1816385138
  H        -3.1120893825       14.5418305110       19.6451782257
  C        -1.8653297165       13.8293100612       21.7130444212
  H        -0.8215258969       12.8099296951       20.1835931556
  H        -0.5353145406       14.4822213291       20.0493829035
  C        -0.9032074756       13.0451376815       22.6292469482
  H        -2.8643770579       13.4682741716       21.6514754566
  H        -1.8860188795       14.8655082594       22.0859816205
  C         0.3666218916       13.7801122699       22.8661357619
  H        -1.3555207265       12.8806240129       23.6185773759
  H        -0.6869109082       12.0668138209       22.1070815347
  C         1.4166253879       12.9116528826       23.4884346957
  H         0.6498770557       14.2269476707       21.8967959810
  H         0.2004495030       14.6709950465       23.4603448939
  C         1.7432331055       11.6264244048       22.6906369200
  C         0.9422492535       12.1662326187       24.6612508388
  C         2.7399002543       13.6847338952       23.6641987740
  C         1.5037799928       10.4810317624       23.4826367793
  C         2.2333762713       11.2940472117       21.4155138127
  C         0.9678245049       10.8342160358       24.6845315108
  C         0.5028215069       12.8987732397       25.7934138258
  H         2.9685150595       14.0366286579       22.5916479289
  H         2.4183097832       14.4813533388       24.2605850460
  C         3.9717600916       12.9165647335       24.0185448888
  S         1.7146420154        8.9926999206       22.6995348956
  C         2.1963503460        9.8779477819       21.2042316187
  H         2.4354860447       12.1162231210       20.7851432579
  C         0.5089978187       10.2372554050       25.8228807927
  H         0.3663317324       13.9727967357       25.6926878642
  C         0.1300639175       12.2490579679       26.9226723529
  H         4.2514726998       12.0949309650       23.4196014998
  H         3.7670366912       12.4722841581       25.0333997066
  C         5.2106467895       13.8212724284       24.1945367637
  C         2.4699692232        9.1646312754       19.9641021571
  C         0.0255390953       10.8769125818       26.9597227557
  H         0.6714581331        9.1794586117       25.9436780211
  C        -0.3013467613       12.6405152304       28.1993916514
  H         6.0357178322       13.2794058237       24.6596632858
  H         4.8167419147       14.7114060231       24.7150981025
  C         5.7759749075       14.2133862623       22.8145785023
  C         2.5296328335        7.7915499576       19.7324799147
  C         2.9072413731        9.9826618643       18.7983982381
  C        -0.3800221590       10.2634764923       28.2679065059
  C        -0.5690792742       11.6047598108       28.9940323761
  S        -0.5160496322       14.2000538310       28.9539013904
  H         6.5538324761       15.0303648611       22.9843350697
  H         4.9971797811       14.6432276444       22.1276129564
  C         6.5668564823       13.0623670108       22.1543301215
  N         2.2638157964        6.7826707382       20.7559328222
  C         2.8022715437        7.2379228773       18.4947578721
  C         3.2589709045        9.4253770371       17.6267380872
  H         2.9625966763       11.0245593084       18.8823155790
  C         0.6669055079        9.4219504800       28.9420762709
  C        -1.7248498214        9.5057556857       27.9247469385
  C        -1.0158341969       11.9930876677       30.2418020437
  C        -1.0986821618       13.3724740608       30.4078180008
  H         7.2081456260       12.5414662336       22.8855322365
  H         5.9294192096       12.3464709772       21.7087105617
  C         7.4226581267       13.5343739652       20.9829004190
  S         2.4414479218        5.3800873762       20.0784569948
  N         2.7503025543        5.8259670117       18.5766743929
  C         3.1566854080        8.0087824135       17.3756648444
  H         3.5513744329       10.1406758033       16.8765431976
  H         0.8076594054        8.5902834947       28.3902590182
  H         0.4917129965        9.0925820888       29.9542963957
  C         1.9835939216       10.2114364989       29.0992119622
  H        -1.5136365279        8.6385212586       27.2203423162
  H        -2.1230363712        9.0683438866       28.8565253380
  C        -2.8283267234       10.3762422642       27.3275536563
  H        -1.4663079836       11.2589270417       30.9119774651
  C        -1.3886319704       14.1921031232       31.6306205387
  H         8.1485667625       12.7285588019       20.7626814351
  H         8.1507720438       14.2580304133       21.3053174135
  C         6.7230982801       13.8646652271       19.7361479031
  C         3.4620393062        7.4011255597       16.1699632778
  H         2.3734712044       10.6878201656       28.1126373558
  H         1.7826175526       11.0078866031       29.7888548237
  C         3.0830755631        9.2288024030       29.6200059741
  H        -2.6623864153       10.5294212918       26.3143637075
  H        -2.9581310677       11.3709514967       27.8441836203
  C        -4.1265361714        9.6062799020       27.3820270067
  C        -1.5085115953       15.6166742597       31.7243233091
  C        -1.6108996993       13.4364702019       32.9676791949
  H         5.7629634976       13.3605324317       19.7932472638
  H         6.5529999310       14.9479499220       19.7362308715
  C         7.5019766375       13.6636790975       18.4616407885
  H         3.5139704743        6.3681355178       16.1837587251
  C         3.7749655387        7.8634585068       14.9177270202
  H         3.6024719480        8.8796711582       28.6876573933
  H         2.5692634242        8.4345652850       30.2017640284
  C         4.1878288554        9.9269780330       30.3434931434
  H        -4.0559174643        8.5910338218       26.8339391485
  H        -4.1569711899        9.2686145123       28.4035169440
  C        -5.3346538240       10.4432665676       27.0223169397
  N        -1.2228136310       16.5448362476       30.6586484972
  C        -1.7413996003       16.2708533035       32.9092209474
  C        -1.9241495374       14.1458953318       34.1353370257
  H        -1.7314461898       12.4047542885       33.0943770227
  H         7.0329138440       14.3935421699       17.7637938806
  H         8.5678293184       13.8993950610       18.5687860150
  H         7.4009290117       12.6139703983       18.1023090510
  S         4.0873963686        9.5090361408       14.4078709287
  C         3.8957119797        6.9530744541       13.7812222638
  H         4.5072998632       10.7079769293       29.6606242121
  H         3.8082723399       10.4655680912       31.2114070826
  C         5.3888436734        9.0537161242       30.7404524915
  H        -5.2445404968       10.8622737786       26.0165955476
  H        -5.4446717605       11.3202503163       27.7217472131
  C        -6.6150347797        9.6787019812       26.8398964596
  S        -1.3930995474       18.0233700287       31.2843430188
  N        -1.7139617264       17.6361043964       32.8192275783
  C        -2.0061574690       15.6138971988       34.1441009545
  H        -2.0981852941       13.6175285140       35.0038866508
  C         4.3354702637        8.9683241659       12.7456374876
  N         4.2882638110        7.6029725074       12.6273254112
  O         3.7274079200        5.7371865919       13.8697908085
  H         6.0656838013        9.8378477378       31.1462408192
  H         5.8267013980        8.7166839840       29.7964667077
  C         5.0835637088        7.8596377230       31.6582721716
  H        -6.6428712561        9.0129025067       25.9612983678
  H        -6.8572655336        9.0200747384       27.7160048367
  C        -7.8063002295       10.6172163672       26.8827085969
  C        -2.3999894243       16.4269136078       35.2618441777
  S         4.6968773446        9.9679123765       11.3522767595
  C         4.3159470589        6.9340707794       11.3144857634
  H         5.4687524363        7.9001624444       32.6975972826
  H         3.9971601205        7.9334176756       31.9765609188
  C         5.4764221031        6.4591406329       31.0993689114
  H        -7.5177397599       11.5545294321       26.4586687416
  H        -8.1535924047       10.8838076814       27.9220740381
  C        -8.9887725173       10.0394325449       26.1479140821
  H        -1.8954317131       17.3275654453       35.2990786687
  C        -2.9680676969       16.1324280073       36.5058958106
  H         4.9060528861        7.3982351048       10.4692710154
  H         4.7987486028        5.9916130320       11.3639001448
  C         2.8645880448        6.7581923461       10.7567485303
  H         5.0415472179        6.2667525627       30.0866969817
  H         4.9871630592        5.7142026326       31.7661199665
  C         6.9715084923        6.1186637902       31.1322926923
  H        -9.2847425119        9.0359539885       26.4350384707
  H        -9.8489071543       10.6198636213       26.4277233926
  C        -8.7830114678        9.9636927210       24.6093609412
  S        -3.5503774743       14.6195786447       37.0117392153
  C        -3.1396830809       17.2139537091       37.4833317924
  H         2.7700644788        5.7581026539       10.4599130553
  H         2.0834806475        6.7773982971       11.5471190449
  H         2.7778565691        7.3494865492        9.8106080615
  H         7.5504229410        6.6959343631       30.4555636627
  H         7.0690148404        5.0734797586       30.7689200473
  H         7.5710740148        6.1249978279       32.0527492417
  H        -8.1845231164        9.0537063904       24.3589507807
  H        -8.1324817956       10.6881042755       24.1016226929
  H        -9.6851541517        9.8822676489       23.9941106773
  C        -3.9451500637       15.4205862998       38.5696675181
  N        -3.7515827032       16.7579923295       38.6060252964
  O        -2.6490562835       18.3354024589       37.2400237639
  S        -4.5611993495       14.6192266762       40.0132919312
  C        -4.0026958231       17.6518976181       39.7062154185
  H        -4.3683920996       18.6144918283       39.3639892742
  H        -4.8315119711       17.2523156057       40.3331614816
  C        -2.7504981372       17.8178216530       40.6168815562
  H        -2.8882132070       18.7970789248       41.1106692411
  H        -2.8031789041       16.9395704317       41.2916706461
  H        -1.7679503507       17.8683382484       40.1136730306
