352
 i =    35800, time =    35800.000, E =        24.8529759011
  H        11.7220056861        6.7907849840       32.2022918037
  C        11.4475082209        5.7328739123       32.2940317716
  H        12.3314795794        5.1659736564       32.1258103242
  C        10.5180565144        5.5789414373       31.1225130470
  C        10.8805235360        5.3140709907       33.6314741788
  C        11.2556007886        5.5450452934       29.7711036903
  H        10.0517150035        4.6210250894       31.2284410190
  H         9.7946935993        6.3360382105       31.1229312839
  H        10.3652318065        6.1252749430       34.1015860681
  H        10.1119083106        4.5627319631       33.4850438014
  H        11.5576636603        5.0078580167       34.3804851076
  C        10.2035727147        5.4138694450       28.6583049703
  H        11.9552186187        4.7550330986       29.7616052429
  H        11.7477140150        6.5090328380       29.6998266292
  C        10.6853369203        5.2940339437       27.2736763338
  H         9.7779183365        4.4353447955       29.0424709385
  H         9.5651868606        6.2654967065       28.7323425232
  C         9.6538391078        4.7745805976       26.3735411071
  H        11.6008153036        4.6141776763       27.2882023997
  H        11.1032514047        6.2178900321       26.8313507723
  C         8.5131533075        5.7366032029       26.0764477823
  H        10.0841318777        4.4071792197       25.4347410435
  H         9.4223257509        3.8665020229       26.9022009160
  C         7.3849551262        4.9999582700       25.3686657060
  H         8.2210162534        6.0913154530       27.0585281613
  H         8.8364093162        6.5898487976       25.4756215032
  C         6.9464558363        3.6820548791       26.0279610578
  C         7.8357607405        4.2082724571       24.1617536288
  C         6.2565383679        5.9955644918       25.1323763860
  C         7.1723172452        2.5687219785       25.2595904252
  C         6.3698876333        3.3325045054       27.2947550524
  C         7.7181710453        2.8904143736       24.0436696220
  C         8.3551220490        4.8604868566       23.0804163911
  H         6.4799937093        6.7013484698       24.2842291591
  H         6.1353938137        6.4908790873       26.1108976101
  C         4.9237214977        5.2243158073       24.8085908090
  S         6.8526411874        1.0552093484       26.0995350936
  C         6.2924707056        1.9430380246       27.4365477193
  H         6.1468024957        4.2031799986       27.8877336521
  C         8.1426839904        2.2496458822       22.8959778434
  H         8.4414695968        5.9698419821       23.0450381671
  C         8.6733972879        4.2267338239       21.8695481852
  H         5.1761440686        4.6720902241       23.8697664365
  H         4.7406931500        4.5426506106       25.6079823922
  C         3.6244122819        6.0537972777       24.7034903596
  C         5.7719636371        1.3136803228       28.6818119237
  C         8.6152921076        2.9233705682       21.7281923887
  H         7.9918663219        1.1473581100       22.8257595389
  C         9.0819195342        4.6332803146       20.6433655225
  H         3.0449635512        5.5826246004       23.9021084676
  H         3.7720322013        7.1256974724       24.4584818136
  C         2.8064181287        6.0383458207       25.9656102441
  C         5.7186304247       -0.0553425697       28.9846620675
  C         5.2908205062        2.1908542777       29.7749338705
  C         9.0261892627        2.2175888585       20.4788690646
  C         9.2389091060        3.5367468939       19.7870630282
  S         9.3811061535        6.1528718918       19.9678915340
  H         2.1358229942        6.8849992663       25.8726338197
  H         3.5324587011        6.2219685084       26.7175431578
  C         2.2881666450        4.6594091427       26.4557226878
  N         6.1140118003       -1.0486805496       28.0452821431
  C         5.4323290004       -0.5994360825       30.2404683322
  C         5.0851171853        1.6603322754       31.0875524357
  H         5.2297978261        3.3113929173       29.6030820480
  C         7.9236267484        1.4258921640       19.8345620319
  C        10.2746653590        1.3403653450       20.6098649307
  C         9.4812319657        4.0488375400       18.4534084102
  C         9.6152139208        5.4212126139       18.3730474250
  H         1.8656705426        4.1190137252       25.6128097491
  H         3.1272321199        4.1732177987       26.9103636611
  C         1.2415318122        4.7742281891       27.5669247930
  S         6.0618704461       -2.5193544351       28.7498006441
  N         5.4721432199       -2.0118794106       30.1996050387
  C         5.1755057122        0.2224573535       31.3781542809
  H         4.9314243555        2.3319497574       31.9123210196
  H         7.7266110051        0.5720244920       20.5150197146
  H         8.2894210766        1.0092991495       18.8796310374
  C         6.5797836467        2.1064721773       19.6270344007
  H        10.4253235527        0.8406351527       19.6800109248
  H        10.1703572559        0.6479010183       21.4314100328
  C        11.5245355810        2.2112802945       20.9791360641
  H         9.6157560287        3.2834920750       17.7156769018
  C         9.9591748515        6.2273421219       17.1668296817
  H         1.0347952469        3.7541473212       27.9893150638
  H         0.3202625787        5.1638696215       27.2069136250
  C         1.6568939319        5.7611366490       28.6828922572
  C         5.0631606427       -0.4405833880       32.6580654559
  H         6.6896341284        3.1404361538       19.4608373689
  H         5.8644534321        2.0157704862       20.4349872115
  C         5.9707215330        1.4577476986       18.3062667305
  H        11.3712295102        2.6329547042       21.9895814291
  H        11.7013637854        3.0780093897       20.3484634261
  C        12.7678970340        1.2505253067       20.9954317788
  C        10.0322826030        7.6818981667       17.1628103255
  C        10.1630284005        5.6063060788       15.8447852638
  H         2.0948201684        6.6767088539       28.2035032238
  H         0.6940990664        6.1892717539       29.1168384531
  C         2.5005114214        5.1013399359       29.8148425967
  H         5.0512206095       -1.5333066615       32.5307590673
  C         4.6722149116       -0.0231953802       33.8566849498
  H         5.9932542459        0.3740526748       18.4136458860
  H         6.5877475377        1.7204059933       17.4549767712
  C         4.6524932793        2.0844255107       18.0723092598
  H        12.5511169242        0.5098473652       21.7762391840
  H        12.8883265710        0.6912342806       19.9722344567
  C        14.0392074259        2.0129450542       21.2056660319
  N         9.6930218151        8.5280631233       18.2350735271
  C        10.3980674021        8.3882857216       16.0238645249
  C        10.4732784297        6.3261161791       14.7463722916
  H        10.1315322245        4.5206746483       15.8823454127
  H         2.5785263686        5.7586127468       30.6669093009
  H         2.0451153033        4.2358506904       30.1382225350
  H         3.5350709011        4.9006828603       29.6444684047
  S         4.3361562104        1.5741810010       34.3327602439
  C         4.4229181038       -1.0824916607       34.8536511465
  H         4.6784236947        3.0106903142       18.6070551110
  H         4.5102735901        2.4236724276       17.0719405370
  C         3.3956653263        1.2768659221       18.5493512122
  H        14.1282064990        2.7899833592       20.5151371505
  H        14.8591544481        1.4318108114       20.8179800243
  C        14.3651362283        2.5339794354       22.5927473123
  S         9.6151502434       10.0313100547       17.6789655272
  N        10.3294400897        9.7422279900       16.2829028597
  C        10.7732934269        7.7543074413       14.8218730136
  H        10.6283093534        5.8047782787       13.8932648806
  C         3.9653734894        0.8463817366       35.9307236732
  N         4.0892293461       -0.5261945570       36.0266927631
  O         4.5435145037       -2.3218338548       34.7064069009
  H         2.7099054286        2.0707490229       18.7744680476
  H         3.5233362793        0.8527805195       19.5024610987
  C         2.8625027578        0.2381688679       17.6734011880
  H        14.9519160969        3.4041195263       22.5827344515
  H        13.4533694487        2.7331888310       23.1010036555
  C        15.0509425237        1.5698885301       23.4531334642
  C        11.0198072707        8.6318735924       13.7216004197
  S         3.5390247315        1.8280088492       37.3125732512
  C         3.9387631300       -1.3385953801       37.2541237710
  H         2.0315596634        0.6872669076       17.1185596899
  H         3.6382100947       -0.0326996628       16.9614089757
  C         2.3888157462       -1.0627032665       18.3865845080
  H        15.1885489375        0.6656703741       22.8928552124
  H        14.2763114848        1.3406757880       24.1739163903
  C        16.3806044999        1.9721844424       24.0125650812
  H        10.7899879137        9.6913549247       13.9000591571
  C        11.6674967171        8.4439835619       12.5301316177
  H         3.6065633506       -0.7765482191       38.1074986735
  H         3.2069427837       -2.1290816740       37.0771834391
  C         5.2814712320       -1.9502295882       37.7268008368
  H         1.4693372767       -0.7894641121       18.9179516197
  H         3.0881838718       -1.1662040907       19.2177470918
  C         2.3475823319       -2.3412132223       17.5275292137
  H        16.2425011585        2.9197378559       24.5949739290
  H        16.7160460127        1.2332804958       24.7298711507
  C        17.5430807503        2.1732869055       22.9668850132
  S        12.3732054261        7.0389214681       11.9273789468
  C        11.8053535650        9.5540499066       11.6478666435
  H         5.2313329811       -2.7253698108       38.4418187773
  H         5.8609325078       -2.2929530648       36.8946675935
  H         5.9540492989       -1.1835872320       38.0591789258
  H         1.7790524224       -3.2222590907       17.9163696697
  H         3.2805166499       -2.6700280039       17.1463184708
  H         1.8092679356       -2.0547137279       16.6525978017
  H        17.8213527922        1.1733627505       22.5559116808
  H        18.5301460616        2.4845430215       23.3810041797
  H        17.2671666419        2.8600471467       22.1695771644
  C        12.7763075450        7.9834042845       10.4879483711
  N        12.4245617369        9.2537920009       10.5271282006
  O        11.2569586547       10.6330672051       11.8212678135
  S        13.2896471284        7.2895609602        8.8628063619
  C        12.3866464503       10.1415429726        9.3482369278
  H        12.5240563039       11.1939157706        9.6324244605
  H        13.3087656807        9.8614197720        8.8180922412
  C        11.1494818805        9.8837537611        8.5118858056
  H        11.3046768908        8.9407447435        8.0135565294
  H        10.3216341535        9.6995559844        9.1079212494
  H        11.0505061480       10.6065975942        7.7643064381
  H        -3.4275083660       14.1366557724       16.6008702758
  C        -2.5700945877       13.4790187478       16.5175091030
  H        -3.0554220231       12.5604712908       16.6599431453
  C        -1.4257394831       13.7030193597       17.5463419360
  C        -1.9276261502       13.3786248081       15.1279377338
  C        -2.0223787267       13.8701165585       18.9143712833
  H        -0.7578446578       12.8503073019       17.4929938421
  H        -0.8582295197       14.5922866045       17.2932265979
  H        -2.3236990963       12.5549163215       14.6290337781
  H        -2.1686595998       14.2693009816       14.5742666615
  H        -0.8174714004       13.3047801946       15.1636918165
  C        -2.2703226199       12.6187156829       19.7263835282
  H        -2.9160204638       14.4719157920       18.9808745270
  H        -1.3039767534       14.4587239210       19.4305406988
  C        -2.5715781531       12.8858763215       21.2113689741
  H        -3.2399422885       12.2452781905       19.3255532124
  H        -1.4526221592       11.8608354486       19.5772542931
  C        -1.5011838233       12.3060616286       22.2295266441
  H        -3.4621766811       12.2347623412       21.2927839408
  H        -2.8666830473       13.9713449931       21.4336486962
  C        -0.2922222248       13.2049014882       22.4602405747
  H        -1.8316364048       12.1466804271       23.2330901376
  H        -1.1508154756       11.3349179375       21.9441414872
  C         0.8827894334       12.4767706155       23.2927183982
  H         0.1063925379       13.4968729722       21.4287499141
  H        -0.6590360818       13.9857336075       23.1048840214
  C         1.2662654907       11.1935331888       22.5888488058
  C         0.4392916767       11.7632495512       24.5119571670
  C         2.1057481423       13.3972773150       23.4781333490
  C         1.0310347898       10.0213127940       23.3324338730
  C         1.8192297077       10.8729742891       21.3085794799
  C         0.5323870139       10.3960649920       24.6060624754
  C         0.0079689660       12.4809050482       25.6007497392
  H         2.4372736079       13.9240226058       22.6074998940
  H         1.7999333042       14.2182017558       24.1030531325
  C         3.2961894179       12.6977272596       24.0465711207
  S         1.5191740608        8.6431828019       22.5278939535
  C         2.0250329264        9.4597107705       21.1153898067
  H         1.9855665423       11.6797869924       20.6260535621
  C         0.0944630275        9.8338264147       25.7783811428
  H        -0.0247268172       13.5096054303       25.5409814965
  C        -0.3429092636       11.8831845593       26.7852428955
  H         3.6888001214       11.9317979919       23.2917814226
  H         2.9953404732       12.1477912512       24.9579415515
  C         4.4442248049       13.5791220017       24.5436053275
  C         2.5194629855        8.7370631943       19.8544589717
  C        -0.2933234882       10.5606956005       26.9552748214
  H         0.1030445191        8.7559836468       25.8324369110
  C        -0.6939236767       12.2241373086       28.0652209568
  H         5.0421109926       13.1183705153       25.3198532126
  H         3.9435813113       14.3750952972       25.0299849956
  C         5.4942199347       14.1081711419       23.4737118653
  C         2.5508480600        7.3481902305       19.6721185958
  C         2.9397965743        9.6369747462       18.7775609734
  C        -0.7334973422        9.7735714752       28.1410153317
  C        -0.9619737141       11.1115511891       28.9136723667
  S        -0.8747216506       13.7392703492       28.9301073144
  H         6.2321886583       14.7172573212       23.9387113103
  H         5.0197767578       14.7379011179       22.7327364298
  C         6.0904979858       13.0308240988       22.6595077632
  N         2.3675615861        6.3327732375       20.6304068875
  C         2.9317693435        6.8109454354       18.4861588866
  C         3.2692989759        8.9901533965       17.5373797730
  H         2.9927833549       10.7187111965       18.9817013578
  C         0.4143410677        8.9372207021       28.7451966951
  C        -2.0213240070        8.9396959793       28.1255743800
  C        -1.3207817369       11.5133395296       30.2814657349
  C        -1.4836366307       12.8938867253       30.3418146821
  H         6.5130933525       12.3168937650       23.3242268021
  H         5.3055672690       12.6134351938       21.9808570413
  C         7.1318023796       13.6364082404       21.6829445327
  S         2.4739575115        4.8714392800       19.9612825234
  N         2.8768423829        5.4148291520       18.4806265484
  C         3.2273067221        7.5599115996       17.3365681500
  H         3.5881297624        9.6284945510       16.7190565441
  H         0.7688511314        8.2463174118       27.9400418226
  H         0.0744417621        8.2804602236       29.5538095075
  C         1.6695903037        9.8349823179       29.0963261401
  H        -1.8630805778        8.0124573311       27.5075256937
  H        -2.2047136126        8.5882623573       29.1196670452
  C        -3.2714922011        9.7187069318       27.7168626680
  H        -1.4816860290       10.7357382827       31.0882124095
  C        -1.8132094213       13.6724386115       31.5817481703
  H         8.0641288122       13.6198403537       22.1819987727
  H         6.8683656007       14.6698457244       21.4333450434
  C         7.0813791344       12.8659822949       20.3389037602
  C         3.4486034658        6.8269620041       16.1090410204
  H         2.2183225336       10.2636972151       28.2659786512
  H         1.4068769674       10.6424589167       29.7507699407
  C         2.6050260991        9.0019354196       29.9178696600
  H        -2.9406586360       10.2999868353       26.8680913482
  H        -3.4531318400       10.3898006764       28.5406940788
  C        -4.5094513106        8.8667760379       27.6782191444
  C        -1.7731077950       15.0706978246       31.8065785524
  C        -2.1655213433       12.9439337718       32.8159030237
  H         7.8658413992       13.3383683918       19.7306561070
  H         7.3346080472       11.8323509999       20.4226998670
  C         5.8266999053       13.0494847627       19.5361343818
  H         3.3215096330        5.7789794919       16.0340876469
  C         3.7410124016        7.3069547076       14.8389833367
  H         2.9765944970        8.1787531029       29.2520668463
  H         2.0223094997        8.5700645125       30.7600079996
  C         3.7002705433        9.8501166284       30.5513580884
  H        -4.1900959792        7.8813706759       27.4413010241
  H        -4.9905859688        8.7584256583       28.7056972722
  C        -5.4800760185        9.1468113768       26.5829135158
  N        -1.4289891943       15.9906454980       30.8074268300
  C        -2.0100558396       15.6715965646       33.0432285887
  C        -2.4468725318       13.5629932256       34.0502849402
  H        -1.9892315962       11.8092476853       32.7728695477
  H         5.8750478941       12.6975349071       18.4756470135
  H         5.1270501929       12.3708802351       19.9658561467
  H         5.5776442443       14.1370428880       19.6117690764
  S         4.1394391831        8.9181942062       14.2730851351
  C         3.7689125168        6.3434963864       13.7501401569
  H         3.7778413853       10.9487127410       30.1503571274
  H         3.5846862125        9.9793632537       31.6567440153
  C         5.0441673983        9.2111159433       30.2304905251
  H        -5.9037980763        8.1009324971       26.5283271155
  H        -5.1261496300        9.5834887804       25.5786005064
  C        -6.6255905288       10.0415220078       26.9803004329
  S        -1.5305773311       17.5206972612       31.5212093837
  N        -1.9551388895       17.0787037334       32.9482815744
  C        -2.4829601391       15.0423688488       34.2365638886
  H        -2.6680962636       12.9545402085       34.9051579313
  C         4.3806715701        8.2249471127       12.6980073124
  N         4.1755362901        6.8616158248       12.5681565324
  O         3.6830254668        5.1554068297       13.8911091162
  H         5.8783288081        9.9266502522       30.3212983042
  H         5.1518790709        8.9396870736       29.1519035696
  C         5.3035489970        8.0630505818       31.1956087030
  H        -7.2617857528        9.4885050107       27.6795477767
  H        -6.2779148551       10.9486534350       27.5096181575
  C        -7.4023417025       10.5682189835       25.7475509579
  C        -2.7053638017       15.8719309186       35.3782463634
  S         4.7352818036        9.1454723033       11.2452871713
  C         4.2902708055        6.1674326850       11.2660859897
  H         5.7745467119        8.5816005136       32.0566671626
  H         4.4083485213        7.6257132088       31.5393275437
  C         6.1396531458        6.9461085581       30.5051495892
  H        -6.8258247026       10.7528809531       24.9077139789
  H        -7.7970827409       11.5423400772       25.9696731543
  C        -8.6158101402        9.6632960287       25.2384486467
  H        -2.6716422962       16.9444595148       35.2268969200
  C        -2.9813954675       15.5048650445       36.6631768816
  H         5.0506239179        6.4658601232       10.5648397623
  H         4.5634625683        5.1293634333       11.5554180213
  C         2.8865525412        6.0000477158       10.5603396735
  H         7.0007297943        7.2855691403       29.8929553041
  H         5.4977862661        6.3341870212       29.8774103045
  C         6.6859759511        5.9893271991       31.6124988768
  H        -8.9311023732        9.8743512690       24.1523312832
  H        -8.4363394996        8.5903447831       25.2681053331
  C        -9.8711783236        9.9181416545       26.0880766401
  S        -3.1095930265       13.8786755250       37.1719691969
  C        -2.9921058412       16.5317109741       37.7284338908
  H         2.7401228097        6.7183988720        9.7466434991
  H         2.8131310952        5.0002791039       10.0344775755
  H         2.0732317471        6.1844802136       11.2821801230
  H         7.6551446439        5.5071084559       31.3790387236
  H         5.9413833946        5.3426532951       32.0095725009
  H         7.0116958026        6.5413289515       32.4863646424
  H       -10.7749882804        9.3492133972       25.7606117913
  H       -10.1463420295       10.9743481972       26.1258985346
  H        -9.6121346777        9.5087258653       27.0558988903
  C        -3.5636121118       14.5750676976       38.7186994429
  N        -3.4704846191       15.9372377986       38.7940153367
  O        -2.7672355233       17.7301563087       37.5143006112
  S        -4.2289221684       13.7815261648       40.1256368220
  C        -3.6229988482       16.7177968717       40.0321130210
  H        -3.8701128330       17.7594026720       39.8178761718
  H        -4.4184084003       16.3075583225       40.6566707364
  C        -2.2687042864       16.7640868055       40.7296973671
  H        -2.1180726232       15.8193860573       41.2511826397
  H        -1.3502883396       17.0107370456       40.1504243652
  H        -2.3415039270       17.5152903680       41.5357293723
