352
 i =    41700, time =    41700.000, E =        24.9492089636
  H        11.5439699749        7.6155821140       32.6180407836
  C        11.4978948946        6.5626760897       32.4366386061
  H        12.5041870369        6.0830753808       32.3564710364
  C        10.5319376683        6.2076118807       31.2549726439
  C        11.0283611893        5.7670739918       33.6271368925
  C        11.1001098604        6.2350719438       29.8690066888
  H        10.1742421813        5.2566884331       31.4284527452
  H         9.6570947522        6.8290958057       31.3816134165
  H        11.3519069184        4.7366547651       33.6863077562
  H        11.4568918680        6.1861651988       34.5279594817
  H         9.9265933795        5.7813878316       33.7203230630
  C        10.1694344117        5.8392863525       28.7420906967
  H        11.8221915300        5.4136263111       29.7477734114
  H        11.5996846497        7.2271247508       29.6333960940
  C        10.8820289308        6.0052965412       27.3824303924
  H         9.8983614900        4.7977383450       28.9273030544
  H         9.2978365759        6.5611532723       28.7999185116
  C        10.0660477160        5.5253720650       26.2097790047
  H        11.6848975312        5.2976161554       27.5028575118
  H        11.1916336170        7.0414575949       27.1338516803
  C         8.7616624953        6.3408976120       25.8992938156
  H        10.7227542456        5.5528625918       25.3048701846
  H         9.8668413749        4.5005440969       26.3097545250
  C         7.6535202681        5.4692519476       25.2193173970
  H         8.2754378008        6.6480515807       26.8381459166
  H         9.0381986734        7.3225011147       25.4262150766
  C         7.3474048688        4.0808443020       25.8534317100
  C         7.9733883843        4.6654862111       23.9514594829
  C         6.3898908588        6.2703715256       25.1112953035
  C         7.4936600193        2.9684900011       25.0281492026
  C         6.8545437806        3.7203596940       27.0709343533
  C         7.9831139188        3.3195351128       23.7863846304
  C         8.3961698364        5.3589826389       22.8127348938
  H         6.6440838246        7.1835615060       24.5691716110
  H         6.1090800129        6.7202546236       26.0767792888
  C         5.1107412325        5.5230840064       24.6272668693
  S         7.0317347820        1.4662999747       25.7483234058
  C         6.5200565202        2.3756881153       27.1642104386
  H         6.8541703134        4.4824599315       27.8045422163
  C         8.3793380352        2.6956355695       22.6231000559
  H         8.4268194821        6.4706448859       22.9047502616
  C         8.6876488970        4.7444185228       21.6017495132
  H         5.3084461371        5.2110860701       23.5986316717
  H         4.9088762205        4.6465082410       25.2945531375
  C         3.8313161165        6.2814110193       24.4748606136
  C         5.9823463701        1.7451916629       28.3765932848
  C         8.6962148573        3.4141313539       21.4748080834
  H         8.3742245182        1.6304545136       22.4508315515
  C         9.0873174260        5.1539297502       20.3376205844
  H         3.0952261516        5.7653360794       23.8266593513
  H         4.0418531174        7.1291317711       23.9765381578
  C         3.0717638578        6.3746011102       25.8638340033
  C         6.0937171207        0.3494438142       28.6993570186
  C         5.4033845398        2.5922537948       29.4424026313
  C         9.0415082841        2.7129589270       20.2230880935
  C         9.1869397334        4.0724386407       19.4457619469
  S         9.4739815901        6.5851103025       19.5494823744
  H         2.2310008736        7.0616004171       25.6537195275
  H         3.7509526000        6.8097897521       26.6290907177
  C         2.6382470183        5.0371971516       26.4934015510
  N         6.4328213704       -0.6780568852       27.7784799515
  C         5.6800911834       -0.1472816760       29.9107211582
  C         5.1640735271        2.0465995559       30.7059501587
  H         5.3841478421        3.6527266548       29.3461322267
  C         7.8616821826        1.9309488505       19.6009948847
  C        10.2829741520        1.8276303653       20.3410023920
  C         9.4692668134        4.4033910262       18.1371734137
  C         9.7015621170        5.7669653502       17.9856677272
  H         2.0180737648        4.4268418311       25.8923321981
  H         3.5320567299        4.4511366616       26.8355226731
  C         1.8042676106        5.3145775054       27.7823938972
  S         6.3584904858       -2.1530136312       28.4812751679
  N         5.7253666419       -1.5896146351       29.8673369663
  C         5.3201926909        0.5972546532       30.9604029628
  H         5.0006664362        2.7444848696       31.5255420857
  H         7.4004815269        1.3840842886       20.4293038741
  H         8.1999259084        1.2555820719       18.8629922943
  C         6.7900021721        2.8133600716       18.8676260366
  H        10.5777020081        1.4886122820       19.3284700834
  H        10.1878644935        1.0631713258       21.0484653302
  C        11.3745247583        2.7817097619       20.8809556904
  H         9.6556085878        3.6299749817       17.4512991739
  C        10.0701194224        6.4710714376       16.7027760126
  H         1.1614774156        4.4633829246       28.0163656457
  H         1.0178353483        6.0674938213       27.5969338508
  C         2.5678080200        5.7799971105       28.9207464773
  C         5.0762850696       -0.1054758562       32.2494260440
  H         7.1895479190        3.1635119715       17.9197275296
  H         6.4523222546        3.7076181169       19.3586616287
  C         5.5102628918        2.0292699208       18.6407435923
  H        11.2102739705        3.0543276973       21.9029310718
  H        11.4595698898        3.6538283355       20.2993360102
  C        12.7684209046        2.1213286396       20.8229003975
  C        10.1279407500        7.8790028894       16.5557628512
  C        10.4092499010        5.6170290101       15.5781028601
  H         3.3325354711        5.0689539411       29.0985543325
  H         3.0650214619        6.7538308305       28.6610712404
  C         1.7181229645        6.0929034752       30.1965853963
  H         5.2321978582       -1.1970814107       32.2701872118
  C         4.6699292366        0.3058272810       33.5212547332
  H         5.1668357016        1.7013610914       19.6282080864
  H         5.7709142372        1.1886873888       17.9324930207
  C         4.3663373339        2.7993318926       17.8720835469
  H        12.9827545840        1.3604439182       21.6182669179
  H        12.9440523253        1.5701520262       19.9373284435
  C        13.9651979710        3.1528591360       20.9243531647
  N         9.9720792868        8.7951286852       17.6330383206
  C        10.4587957760        8.4853890856       15.3656246200
  C        10.6841402933        6.2291904181       14.3346513654
  H        10.4569254024        4.5620982709       15.6551975439
  H         0.9256796631        5.3589519054       30.3549553718
  H         2.4397787470        6.1103245182       31.0557529456
  H         1.1464705890        7.0287299769       30.2201782386
  S         4.1361349199        1.8768732704       33.9137136621
  C         4.6251203654       -0.7316695789       34.5757854492
  H         4.1635178126        3.7759708620       18.2842132643
  H         4.6464876424        3.0329141859       16.8016678708
  C         3.0516621997        2.0156595087       17.8339318888
  H        13.6270104266        4.1180160907       20.4263626587
  H        14.7018916940        2.9154533721       20.1583385010
  C        14.5768311589        3.3025554461       22.2911587234
  S        10.1171332776       10.2833529342       17.0262129405
  N        10.3690824779        9.8920931017       15.4632887807
  C        10.7862360995        7.7585267239       14.2453013614
  H        10.9348175237        5.6559980037       13.4857096565
  C         4.1297512109        1.2759407120       35.5352710858
  N         4.2824729370       -0.0403763948       35.6614590546
  O         5.0572565102       -1.9238582432       34.5425229563
  H         2.3793230837        2.4852994583       17.1359160914
  H         2.6207404363        1.9771245872       18.8121965113
  C         3.1714092089        0.5858877459       17.1773930882
  H        15.2205788001        4.1404934835       22.2675974125
  H        13.8100040195        3.5662871357       22.9583196444
  C        15.2861338720        2.0535965449       22.7784826153
  C        11.0901566450        8.4728597088       12.9652501463
  S         3.6924593806        2.2414915440       36.9255249647
  C         4.2967874020       -0.7407668545       36.9798788554
  H         2.4586327121        0.3760126951       16.4162454367
  H         4.1221683760        0.4739202257       16.6897158107
  C         3.1998156595       -0.6144936157       18.1143071371
  H        15.4450951966        1.3128158793       22.0627801001
  H        14.5610381485        1.6595707799       23.4699927893
  C        16.6038878130        2.3585912353       23.4696161015
  H        10.7281175613        9.4582688709       13.0266466994
  C        11.7509700096        8.0915463682       11.8093318348
  H         3.6316771297       -0.2565949106       37.6375414967
  H         3.8787275523       -1.7271803858       36.8997394640
  C         5.7405295765       -0.8180565088       37.5519446311
  H         3.8315901989       -0.4175275517       18.9842233362
  H         3.6317305230       -1.5514371384       17.7034720577
  C         1.8223412471       -1.0132538126       18.6794412003
  H        16.3558214188        3.1833714713       24.2077038246
  H        16.9314280568        1.4676362922       24.0335207707
  C        17.6770587289        2.8111462659       22.5291383724
  S        12.3362561501        6.5706651512       11.3266557928
  C        11.7916523492        9.1751384332       10.7467752242
  H         5.8250993676       -1.6275136310       38.2442536128
  H         6.5670278502       -0.8168319364       36.8016631490
  H         5.9139884349        0.0514683135       38.2163724163
  H         1.9365677165       -1.4525249990       19.6678808941
  H         1.5167378158       -1.8190241714       18.0137449544
  H         1.0053099525       -0.1493211094       18.6282121123
  H        18.6378257550        2.7765033503       23.0272372765
  H        17.6635787846        3.7873231804       22.1236818692
  H        17.6628835745        2.1631220306       21.6210673108
  C        12.5204064810        7.3200060300        9.7323005234
  N        12.3779527107        8.6562542771        9.6839958395
  O        11.3396141016       10.3264540489       10.8368386911
  S        13.3275767894        6.4459540935        8.4350075281
  C        12.5364191993        9.3553308627        8.4358884755
  H        12.4784189646       10.3727608086        8.8320504661
  H        13.5297989264        9.2942983980        8.0424717017
  C        11.3891873322        9.1139927252        7.4069087916
  H        11.5356230155        8.1531939836        6.9703833189
  H        10.3934478840        9.2637732250        7.8535147178
  H        11.4188074803        9.7877841213        6.5382169115
  H        -3.8711984045       14.7627161934       16.6175302701
  C        -2.9960140503       14.1392089345       16.7970176203
  H        -3.4145393485       13.1787028063       17.1330103433
  C        -2.0689039600       14.7152635639       17.8735154385
  C        -2.2680244622       13.9692856127       15.5155508917
  C        -2.5269708282       14.6772249458       19.3210887631
  H        -1.0911289189       14.2543982313       17.7649062827
  H        -2.0217105985       15.7819948680       17.5634301488
  H        -2.9109302599       13.4076636812       14.8097016090
  H        -1.9310218317       14.9797204619       15.1423595401
  H        -1.2381603800       13.4958807130       15.6036682482
  C        -2.1743390568       13.4543732787       20.0221182302
  H        -3.5963922672       14.5932319303       19.3063068607
  H        -2.0707249003       15.5631160833       19.8420542252
  C        -2.2425002126       13.6308124472       21.5755031991
  H        -2.8416262013       12.7128205481       19.6885505803
  H        -1.1763630180       13.1683949699       19.8014196449
  C        -1.0742057790       12.9857142376       22.3433674631
  H        -3.1870443675       13.2406678839       21.9806345587
  H        -2.2947929023       14.7246114902       21.9212851631
  C         0.0907590463       13.9128884284       22.6344255322
  H        -1.4597576966       12.5610120162       23.2625170734
  H        -0.7365842759       12.0210667898       21.9867192934
  C         1.2870563666       13.2130317234       23.3301667622
  H         0.2929219436       14.3353434998       21.6783814202
  H        -0.3354914313       14.7391844028       23.2262948002
  C         1.6614570079       11.8569109659       22.7121735162
  C         0.7753713924       12.5057231612       24.5910156490
  C         2.5267364399       14.1245230221       23.5409531683
  C         1.3447480409       10.7456173473       23.4541823051
  C         2.1933502352       11.4865266778       21.4565378121
  C         0.7953190230       11.1363720785       24.6923946931
  C         0.2801142837       13.2163554617       25.7360082134
  H         2.8364247630       14.6819619533       22.6658786906
  H         2.2548124529       14.8814306012       24.3282556034
  C         3.7730744499       13.4188795833       23.9855566002
  S         1.6872899441        9.2430833238       22.6583189947
  C         2.1946880763       10.1459283030       21.2631298222
  H         2.2990541593       12.3552052676       20.7795972585
  C         0.2830858944       10.5384860672       25.8101684179
  H         0.3130638366       14.3103030982       25.7138572354
  C        -0.2274414971       12.5477735281       26.8325801590
  H         4.1277356665       12.6749500777       23.2327443220
  H         3.5847909991       12.8690043490       24.9008649259
  C         4.8824814301       14.3596855850       24.2569935703
  C         2.5684120895        9.5081192876       19.9924466176
  C        -0.1561017337       11.2020398275       26.9550430787
  H         0.3460323089        9.4517339000       25.8954859402
  C        -0.7092631478       12.9179416167       28.0096840675
  H         5.4374515231       14.0451764944       25.1379844505
  H         4.4973594841       15.3080597737       24.5824125003
  C         5.7437479738       14.7765329378       23.0081153208
  C         2.5867461831        8.0740747990       19.7821144282
  C         2.9875302707       10.3264275647       18.8295065903
  C        -0.5868280526       10.4972736551       28.1780327230
  C        -0.8451191967       11.8145875797       28.8681029733
  S        -1.0398425168       14.4138357633       28.7247925688
  H         6.5215030847       15.4443989714       23.2968002198
  H         5.1250724037       15.2451326783       22.2402929690
  C         6.5110464386       13.6024408664       22.3690702265
  N         2.4971883692        7.0509371131       20.7496136859
  C         2.8012240228        7.5272275257       18.5139471217
  C         3.4137494333        9.7182752138       17.6442060763
  H         2.9959175811       11.4177519303       18.9079063575
  C         0.6366631764        9.7634651333       28.8718029705
  C        -1.8228688994        9.6374192579       27.8800143120
  C        -1.2278591661       12.1884055699       30.1266627013
  C        -1.2481080790       13.5614420665       30.2266411571
  H         7.1209201140       13.0290669098       23.0560719632
  H         5.7837611590       12.8888431397       21.9471120429
  C         7.4338805858       14.1677433609       21.3077360241
  S         2.4059378633        5.5672000345       20.0557879911
  N         2.6663893885        6.1415557444       18.5353886424
  C         3.0931481435        8.3057276160       17.3547054584
  H         3.6922176564       10.4467029663       16.8232327729
  H         1.1754482637        9.1542449390       28.0896391697
  H         0.2755022175        9.0895726133       29.6221199755
  C         1.7202312026       10.6186043107       29.3741164179
  H        -1.5295409736        9.0218368369       27.0632025170
  H        -2.0068079711        8.9163503860       28.6877744175
  C        -3.0594508838       10.5068283015       27.5292591149
  H        -1.4876656187       11.4347662239       30.8881108766
  C        -1.5555381802       14.2520874150       31.4703725008
  H         8.3404046365       13.6149562141       21.0982571537
  H         7.7873905551       15.1943380347       21.5298280047
  C         6.7435518503       14.4326708252       19.9560559371
  C         3.3313612355        7.5589896930       16.1350992352
  H         2.0576165796       11.3164700346       28.5260391501
  H         1.4545063285       11.4110536261       30.0930290919
  C         2.7818463277        9.7531986341       29.8763048943
  H        -2.8307540998       11.2943881328       26.8388606162
  H        -3.3503547508       10.9798143404       28.4613743118
  C        -4.2450712436        9.7810526475       26.9835930907
  C        -1.6046002410       15.6858813307       31.5899184873
  C        -1.9531377707       13.4732907898       32.6786289349
  H         5.8758786206       15.0500132884       19.9939437724
  H         7.3842498149       14.9143246076       19.2863686474
  C         6.3795219473       13.1292315696       19.2157795744
  H         3.3446649382        6.4396102140       16.1784074836
  C         3.6174231410        8.0129899537       14.8499871065
  H         3.1412236594        9.0430066445       29.1726834626
  H         2.4054186588        9.1623023495       30.7658655109
  C         4.0578500813       10.5714403709       30.2902790746
  H        -4.0113498808        9.0500104809       26.2059475926
  H        -4.6004814212        9.0931482086       27.7760540348
  C        -5.4470032968       10.6436823802       26.5839258977
  N        -1.2589636609       16.5693841564       30.5950147117
  C        -1.9730889842       16.3729921844       32.7653078273
  C        -2.3433456455       14.1514867917       33.8292300796
  H        -1.9391385197       12.3875402044       32.6389264864
  H         5.3915628509       12.7372501204       19.5347462667
  H         6.4182595484       13.2369090451       18.1622644222
  H         7.1433707545       12.3768606252       19.4017301305
  S         3.8144456120        9.6434520755       14.3546943695
  C         3.7046628628        6.9944174039       13.7729621201
  H         4.0418239752       11.5640371514       29.8529170968
  H         4.1277350377       10.6373154016       31.3721665408
  C         5.4200910127        9.8878128278       29.8875256263
  H        -4.9625926995       11.4115925771       25.9760911629
  H        -5.8671439891       11.1459302290       27.5204357333
  C        -6.5096161082        9.8735165314       25.8192298538
  S        -1.4467959449       18.1220235442       31.2211335408
  N        -1.8705328099       17.7537915326       32.7283582057
  C        -2.3181439506       15.6526703162       33.9440607547
  H        -2.6705997901       13.5722536950       34.6396026921
  C         4.0551093190        8.9599192340       12.7132191098
  N         4.0341826496        7.6205893875       12.6279534082
  O         3.5120123327        5.8092764866       13.8776398327
  H         6.2961818193       10.5247229128       30.1346429746
  H         5.5662215271        9.6083400233       28.8131311713
  C         5.6532272580        8.5675509381       30.6358617119
  H        -6.0638858760        9.5535412997       24.9142691799
  H        -6.8763379280        9.0225101751       26.4391792057
  C        -7.5538792152       10.9318876169       25.4656065300
  C        -2.6208325830       16.3757909616       35.1327475373
  S         4.4976254842        9.9103748368       11.3474738752
  C         4.0617086542        6.8738968232       11.3561734079
  H         6.5379036090        8.8009450313       31.3716457860
  H         4.7523574564        8.3211975941       31.1866668224
  C         5.9836547142        7.3683198199       29.7491973163
  H        -7.3483800424       11.4061093452       24.4665337611
  H        -7.5522900649       11.8027670997       26.1054615136
  C        -9.0135385890       10.5533536853       25.4846503848
  H        -2.1761078868       17.3471133344       35.1422999336
  C        -3.1561383669       16.0192128687       36.3726767438
  H         4.7029730807        7.4087629541       10.6798147740
  H         4.3929991299        5.8586054170       11.5283205208
  C         2.6194825851        6.7741661313       10.7666982333
  H         6.8550372110        7.7004942287       29.1726808268
  H         5.1820404190        7.0834365356       29.0614760521
  C         6.3267350771        6.1044554077       30.6111699138
  H        -9.5141896870       11.3833826269       25.1507883492
  H        -9.3409623759        9.6780596667       24.8965516801
  C        -9.4978958004       10.4087167084       26.8867935563
  S        -3.8637949105       14.5219398270       36.7242838800
  C        -3.3215993353       17.0596608243       37.3723366861
  H         2.5294188045        5.7829928757       10.1622187895
  H         1.9127794686        6.8425219480       11.6252907935
  H         2.3956697657        7.6004096578       10.0903173029
  H         7.0181118483        6.4530339841       31.4771252944
  H         6.7572813792        5.3454794483       29.9803793175
  H         5.4425535380        5.6051318277       30.9710614928
  H        -8.7358009425       10.5845775418       27.6788483658
  H       -10.0147321605        9.5329701528       27.1110176308
  H       -10.3007227412       11.1477057524       27.0993676640
  C        -4.1198678664       15.2077024083       38.3874712193
  N        -3.9479610766       16.5367753974       38.4402688116
  O        -3.1285125212       18.2187161693       37.1634818408
  S        -4.7068053753       14.3121157272       39.7794591272
  C        -4.0979153015       17.2850430392       39.6437707192
  H        -4.0900143771       18.3105377465       39.3789752355
  H        -5.0018878580       17.0502159598       40.2765415917
  C        -2.9190685718       17.1228110340       40.6057355487
  H        -2.9592231520       17.9743956612       41.2402372857
  H        -3.0264914661       16.2322544605       41.2605370549
  H        -1.8930836955       16.9002442443       40.2960628070
