352
 i =    21600, time =    21600.000, E =        24.4024462965
  H        11.5181300268        6.8889148157       32.9768541018
  C        11.3244524343        5.9924341752       32.4524840493
  H        12.3167258726        5.6387370640       32.1540478737
  C        10.4777571584        6.2150895785       31.1677857760
  C        10.7381562615        4.9348435067       33.3404831151
  C        10.8420312880        5.3062911448       29.9909399293
  H         9.4507325747        6.2331409324       31.4436645285
  H        10.7193144039        7.2300048371       30.8788206206
  H        11.5079466908        4.6830755322       34.0570704298
  H         9.8687487806        5.3114517260       33.8671389531
  H        10.4854732749        3.9744390279       32.8777071881
  C         9.8409530944        5.3492307893       28.8811678064
  H        10.9766050555        4.2596682252       30.1125070984
  H        11.8442277784        5.5593312756       29.6765004129
  C        10.4262983942        5.4936629697       27.4679617728
  H         9.3427656723        4.4260176450       29.0548526935
  H         9.1632123925        6.1879595894       29.1677377945
  C         9.6779689478        4.8769764231       26.3323311316
  H        11.3732458328        4.9584420257       27.5104996537
  H        10.5608235519        6.6188734500       27.2833774331
  C         8.3949529841        5.7281778071       26.1255671296
  H        10.2586135735        4.8055561073       25.4422061341
  H         9.3697821038        3.9270519305       26.6412394477
  C         7.2267641161        5.0214803188       25.3788585813
  H         8.0563668499        5.9262808296       27.1023144303
  H         8.5678001545        6.7327006206       25.8550016043
  C         6.9234022881        3.6518428808       25.9903378706
  C         7.6335244290        4.3036733616       24.1163426596
  C         6.0011200237        5.9286342340       25.2413198047
  C         7.1185186690        2.5384319230       25.1807034628
  C         6.4250221125        3.2826888597       27.2905751701
  C         7.5608333275        2.9557967190       23.9688205378
  C         8.0567257480        4.9826804317       23.0038144967
  H         6.2922326386        6.6974056008       24.5652446849
  H         5.7741369059        6.3396495933       26.1927239681
  C         4.8026859550        5.1920588163       24.6879580910
  S         6.9567684050        1.0229735592       26.0420049070
  C         6.3546359507        1.9066535029       27.4127366713
  H         6.1700921220        4.0327059032       27.9826632462
  C         7.9153374936        2.3296823453       22.7731094207
  H         8.1170429919        6.0816374949       23.1478065405
  C         8.4434821747        4.3690592876       21.8264812766
  H         5.0453655091        4.8819596826       23.6575027235
  H         4.6651424224        4.2551004592       25.2077476257
  C         3.5052261183        5.9718781792       24.5560884407
  C         5.9421482161        1.2528998893       28.7027709123
  C         8.3973931299        3.0496390581       21.6380666018
  H         7.9233009836        1.2763243945       22.7729167888
  C         8.9192713602        4.7715857215       20.6110411500
  H         2.8681489505        5.4013945002       23.9359554207
  H         3.6180946983        6.9329823682       24.0775578973
  C         2.9301065648        6.1435537840       25.9551309033
  C         5.9464355400       -0.1232113843       28.9845833673
  C         5.3134537034        2.0416421062       29.7943253874
  C         8.8602329329        2.3905071377       20.3529816980
  C         8.9914484569        3.7293174060       19.7233597366
  S         9.1517624947        6.3293714446       19.9550500442
  H         2.1349764684        6.8485253931       26.0709161076
  H         3.7238999050        6.4698459907       26.6373006267
  C         2.1243064268        4.9689946793       26.4416539009
  N         6.1801076914       -1.1032845016       27.9952624488
  C         5.5875626610       -0.7244029833       30.2128525534
  C         4.9684871580        1.5360408164       31.0608584045
  H         5.2100874633        3.1108019154       29.5656279605
  C         7.7298620503        1.5541085928       19.7242963479
  C        10.1602395960        1.5974264549       20.3212040980
  C         9.3951595659        4.1323848097       18.4906138074
  C         9.4694293795        5.5352906354       18.3985725729
  H         1.4707259103        4.7590685810       25.6113138190
  H         2.8173925667        4.0855058620       26.6279611701
  C         1.2364472972        5.2776767991       27.7250243986
  S         6.2580089241       -2.5231365559       28.6799536808
  N         5.8373549111       -2.0572899304       30.2001761117
  C         5.1143933810        0.0877199028       31.2861818446
  H         4.6324444372        2.2078220795       31.7776128921
  H         7.4180805237        0.8177672579       20.4242175243
  H         8.0914520473        0.9198495389       18.9138325484
  C         6.4800733613        2.3091198558       19.2117270887
  H        10.4680647986        1.2635035563       19.3302814352
  H         9.9758659210        0.6943440653       20.9086192079
  C        11.3370054041        2.4722156922       20.9807845877
  H         9.6960178065        3.4394209385       17.7449212373
  C         9.8611459622        6.3786887913       17.2478189626
  H         0.4582246490        4.6140934511       27.9488904423
  H         0.6933150885        6.1659102701       27.5714245243
  C         2.1852350702        5.3267935538       28.9199711670
  C         4.7221644237       -0.5241357832       32.4906415695
  H         6.7136369027        2.9658014210       18.3724192680
  H         6.0971785403        2.9707991713       19.9710759975
  C         5.3197398723        1.4710235015       18.6594584352
  H        11.1042397814        2.7740825886       22.0327026298
  H        11.4374984637        3.4572538361       20.4896949708
  C        12.6725486356        1.6922341987       20.9192252275
  C         9.9140993311        7.7926878167       17.2052382787
  C        10.3373455449        5.6466026099       16.0073947574
  H         2.7703174910        4.3505305685       28.9677816513
  H         3.0614670246        5.9344304195       28.8000944475
  C         1.5687664752        5.8043688923       30.2892225594
  H         4.8794059378       -1.5896690252       32.3831514530
  C         4.3943729494       -0.0833937020       33.7489137584
  H         4.9735071900        0.6659795593       19.3726150592
  H         5.7051713426        0.8940794350       17.8540538096
  C         4.1737721151        2.2741488266       18.1576798300
  H        12.6496706642        0.8123876959       21.5849690299
  H        12.6810129971        1.1972327764       19.9086730905
  C        13.9292025541        2.6198376343       20.9888935393
  N         9.5830583547        8.7505680728       18.2304595591
  C        10.2959482828        8.4829177475       16.0575478503
  C        10.7408698492        6.3093929979       14.8864571479
  H        10.2733302380        4.5742808220       16.0426512311
  H         0.6822306155        6.3261557159       30.1159412485
  H         1.3804248377        4.7418979055       30.6954764023
  H         2.2335458126        6.3243451875       30.9477066152
  S         4.1066584992        1.5061106742       34.2285137609
  C         4.2724227890       -1.1016520070       34.8311165797
  H         4.2437181880        3.2722253473       18.5970887497
  H         4.2730855052        2.4078624444       17.1585941583
  C         2.8656360883        1.5398352716       18.4353985864
  H        13.9012551757        3.4165526844       20.2501227774
  H        14.8287436352        2.0484254537       20.7189663067
  C        14.1539081457        3.1824447936       22.3379768900
  S         9.7205209757       10.2844266738       17.6664693681
  N        10.2457399864        9.8767842934       16.1706696015
  C        10.7318236431        7.8162125875       14.8533212166
  H        10.9322737714        5.7208607534       13.9791813052
  C         3.8378569501        0.8313745492       35.8592381032
  N         3.8582645982       -0.5116144977       35.9409526347
  O         4.3628215855       -2.3451977180       34.6342435601
  H         2.0352472054        2.2017367547       18.3158345245
  H         2.7870367409        1.1807346512       19.4125891243
  C         2.7278336854        0.2688537799       17.5876199071
  H        14.7634779490        4.0816295213       22.1784099731
  H        13.1818616600        3.4925328762       22.6882294901
  C        14.8642242531        2.2744431073       23.3724085935
  C        11.0212305460        8.6214295079       13.6718990664
  S         3.5662300981        1.7522371162       37.2929014359
  C         3.7394111102       -1.2414703079       37.2294690953
  H         1.9317643238        0.4092429154       16.8282302658
  H         3.6425478672        0.0843324187       17.0967968946
  C         2.3321328731       -0.9240586409       18.3839232904
  H        14.5938580428        1.2191838072       23.3853025745
  H        14.4200361436        2.5259024963       24.3155400067
  C        16.3774497561        2.5393619064       23.3705872896
  H        10.7272089961        9.6676721952       13.6160948173
  C        11.3823830200        8.2710635404       12.4129245145
  H         2.7578049152       -0.9015212487       37.6567800326
  H         3.6131521492       -2.2413970773       36.9707694232
  C         5.0050038989       -1.0981053739       38.0441106897
  H         1.3294357283       -0.6429899279       18.8008323737
  H         3.0689441213       -0.9899887988       19.2436601456
  C         2.3335564104       -2.1707441400       17.5068807579
  H        16.4289175883        3.5832511237       23.2174937585
  H        16.8536880684        2.2483693231       24.2992046650
  C        17.1967073608        1.8802279032       22.3457371504
  S        11.8484441957        6.7320062338       11.8598228237
  C        11.3309511165        9.3551617522       11.3968850966
  H         4.8958405823       -0.3031544567       38.8030179343
  H         5.2848263951       -2.0516881051       38.4154433922
  H         5.8780349838       -0.9002992991       37.4713711456
  H         2.1102172934       -2.0638414373       16.4860693256
  H         1.6989446077       -2.8348200938       18.0253434070
  H         3.3865371596       -2.4653742676       17.5396125459
  H        17.6196486299        1.0158660074       22.7996099645
  H        17.9851485096        2.3862085914       21.8779047749
  H        16.6390606466        1.4913844712       21.5388871753
  C        12.0289548544        7.4658460101       10.2493831002
  N        11.7999205335        8.8253519521       10.2201229060
  O        11.0029987456       10.5230775803       11.5891047898
  S        12.3617402407        6.6636892679        8.7271129555
  C        11.7859735760        9.6295482890        9.0495913685
  H        11.9713745684       10.6549414068        9.3149872560
  H        12.6828834573        9.3316760544        8.4205911230
  C        10.5744394633        9.4507123970        8.1412919192
  H        10.3572666238       10.3680137534        7.6386388912
  H        10.8941947386        8.7423501980        7.3792596008
  H         9.7399871760        8.9515387125        8.6529931722
  H        -3.6887524499       14.5778532065       16.0722304867
  C        -3.3121384834       13.5188163060       16.1109829407
  H        -4.2300219828       12.9706852739       16.4491836347
  C        -2.1622696339       13.2313578401       17.0618078133
  C        -2.8418358168       13.0869844473       14.6568126526
  C        -2.6753635712       13.1703787977       18.5367358471
  H        -1.7098596266       12.3403550960       16.7680042203
  H        -1.2857243411       13.9234983901       16.9264994871
  H        -3.0736522539       12.0591058451       14.4121203530
  H        -3.1187069092       13.7463756561       13.8651034146
  H        -1.7769604461       13.0515683085       14.5632567947
  C        -1.6412024425       13.0204308137       19.5755649089
  H        -3.3123493354       12.2404628740       18.7831312684
  H        -3.3489170034       14.0397781268       18.6355248786
  C        -2.3504010231       13.1229305192       20.9703346498
  H        -1.1116676151       12.1780136830       19.4688416445
  H        -1.0371238319       13.9273068219       19.4671663492
  C        -1.5304045203       12.5734346832       22.0671358072
  H        -3.3114082771       12.5790123398       21.0289140911
  H        -2.5599459065       14.1930714128       21.1292167012
  C        -0.3730988875       13.4614941026       22.4809893500
  H        -2.1776066677       12.5342549942       22.9419512671
  H        -1.3223479555       11.5311878219       21.7572408744
  C         0.7900940660       12.7813104574       23.2020020900
  H         0.0161488404       14.0256841139       21.6038287037
  H        -0.7171480713       14.1607623235       23.1957783215
  C         1.1851915924       11.4829978349       22.5377522123
  C         0.4030064763       12.0737705893       24.4691534541
  C         1.9978042554       13.7834593694       23.4871248056
  C         0.9681489745       10.3490268255       23.3166105232
  C         1.7004124150       11.1116757123       21.2802016093
  C         0.4234201818       10.7053078287       24.5736339745
  C         0.0698498464       12.8028911130       25.6622341076
  H         2.1053810992       14.2804184530       22.4408354547
  H         1.7351144872       14.5779375530       24.1735158748
  C         3.2964169329       13.1176307896       23.9198718777
  S         1.5817284141        8.7899752132       22.5936963363
  C         1.8567702791        9.7415483954       21.1637344373
  H         1.7651606500       11.8676799763       20.5280991527
  C         0.0805937804       10.1036487104       25.7404737773
  H         0.0185864220       13.8688372464       25.6429299938
  C        -0.1926118914       12.1727407566       26.8127552533
  H         3.6440723203       12.4438446931       23.1227547206
  H         3.2288278820       12.5202983378       24.8541138514
  C         4.4815424037       14.0772702996       23.9893482079
  C         2.3729596867        9.1465186216       19.8324622151
  C        -0.2852460526       10.8130735246       26.8902437363
  H         0.1265500489        9.0514790709       25.7611893900
  C        -0.4867927277       12.5199588028       28.1476101123
  H         5.0846790189       13.7027245274       24.7761678979
  H         4.1798536314       15.0110671225       24.4707170495
  C         5.3402076928       14.2300924050       22.7125947597
  C         2.3393394179        7.8106103579       19.5626149198
  C         2.7436632140       10.0868197752       18.7320175129
  C        -0.5780847407       10.1128317663       28.1739064236
  C        -0.8167742220       11.4306451648       28.9453559051
  S        -0.7825721116       14.0063001645       28.8588774738
  H         5.9845868437       15.1158164654       22.8202137598
  H         4.7728529174       14.5441380773       21.8694419034
  C         6.2638659618       13.0405356055       22.4266041340
  N         1.8944207356        6.8465581255       20.4885472787
  C         2.6337777555        7.3368773077       18.2814173745
  C         3.1672560385        9.6415757887       17.5061321183
  H         2.8679033790       11.1496105055       18.9285277486
  C         0.5896823268        9.2834187205       28.7632292603
  C        -1.8824052926        9.3085351437       27.9905939556
  C        -1.1880955885       11.8824230051       30.2385164061
  C        -1.1870340995       13.2745584339       30.3709175474
  H         6.9320400649       12.9913985933       23.2364569936
  H         5.7092091311       12.1596098617       22.1584057532
  C         7.1798923772       13.3209203045       21.1986443142
  S         1.8093903989        5.4382876283       19.7079662806
  N         2.4729298243        5.9495489576       18.2794028489
  C         2.9442230239        8.1955581861       17.1809561503
  H         3.5288118224       10.3997812119       16.8278334420
  H         0.6143902591        8.4098951823       28.0738138430
  H         0.1645359038        8.8381280608       29.6895259335
  C         1.9787326300        9.9454254524       28.9438096383
  H        -1.9020013972        8.6172659400       27.1983086573
  H        -2.0944386257        8.8219634792       28.9674035650
  C        -3.1734935709       10.0791019322       27.5329982854
  H        -1.5451894936       11.1352050715       30.9563310209
  C        -1.6239141000       14.0501231763       31.5904292909
  H         8.0970793853       12.6977842815       21.1408397872
  H         7.5139840952       14.3308074515       21.3218798780
  C         6.4035527855       13.2552657057       19.8338197524
  C         3.2590034188        7.5679794083       15.9451873176
  H         2.3264639693       10.6023625853       28.1025290908
  H         1.9776797755       10.6295163826       29.7734320082
  C         3.0615241480        8.8732912565       29.3898384267
  H        -2.9722818734       10.4394834761       26.5137572827
  H        -3.2579736529       11.0572172599       27.9826822632
  C        -4.5088551700        9.3442401937       27.6772421743
  C        -1.6753386690       15.4669264368       31.7071133014
  C        -1.7399171235       13.2288328350       32.8569716241
  H         5.7324783236       12.3921368472       19.7261074924
  H         5.7134563341       14.0797112446       19.7742847331
  C         7.2168246462       13.3302516957       18.5463916529
  H         2.9836993748        6.5082036074       15.9443949492
  C         3.7549403562        8.0506142794       14.7490617654
  H         3.2194346094        8.1629761104       28.5358101967
  H         2.6902267787        8.2258556890       30.1679816693
  C         4.3565253292        9.4788858864       29.7773914408
  H        -4.6508436798        8.5536269382       26.9460823959
  H        -4.6436223224        8.8401898762       28.6311026708
  C        -5.7362980421       10.2094719786       27.5561410886
  N        -1.5624462792       16.3248264474       30.6373541108
  C        -2.0884683874       16.0915058783       32.8642333215
  C        -2.1376666834       13.9079573086       34.0200307697
  H        -1.3996589462       12.2197252821       32.8825563381
  H         8.0992895027       12.6190736916       18.5439411424
  H         6.5238079160       13.1182231395       17.6679992199
  H         7.6702756056       14.3566525870       18.3104822425
  S         4.0990463510        9.6430056332       14.3822336177
  C         3.8383394006        7.0602003121       13.6955893742
  H         4.4739197579       10.3715706475       29.1398391837
  H         4.3133843865        9.6740986692       30.8282871986
  C         5.5596040291        8.4517617341       29.5941827622
  H        -5.4667976403       11.0024327428       26.8675252392
  H        -5.9775623484       10.6800556314       28.4620485700
  C        -7.0152737778        9.4997510445       27.0970738817
  S        -1.6615469681       17.9040329257       31.1589064000
  N        -2.1892052143       17.4946461652       32.6253294056
  C        -2.4083631112       15.4085459351       34.0616297151
  H        -2.1659898176       13.4204495235       34.9169395327
  C         4.4659089608        8.9455237499       12.7436167707
  N         4.2141133418        7.6334960304       12.5724599318
  O         3.5438320603        5.8240061306       13.8015442162
  H         6.4787266864        9.0555183606       29.3814969467
  H         5.3154674775        7.8182364359       28.7513742682
  C         5.7605602537        7.4972071785       30.8022811053
  H        -7.0806570196        9.0434518737       26.0884667380
  H        -7.2074480503        8.6199768497       27.7433876134
  C        -8.2525637319       10.4146692276       27.1547435308
  C        -2.7516530852       16.0159728380       35.2813009345
  S         4.7169564108        9.9653784182       11.3272888843
  C         4.3272206391        6.8444906554       11.2996558916
  H         6.5903718765        7.8314091287       31.4588491628
  H         4.8490599627        7.6462991763       31.4318834592
  C         5.7949799762        6.0429325939       30.4180300603
  H        -7.9002348867       11.2958958300       26.6229492364
  H        -8.3528214971       10.6308163985       28.1668583885
  C        -9.4223848700        9.7053318705       26.5006466423
  H        -2.5840560689       17.0227516699       35.2744056750
  C        -3.2568045021       15.5822101259       36.4412184595
  H         5.2772497573        7.2185954615       10.8117120266
  H         4.4381337391        5.7868244916       11.5457123323
  C         3.0543745509        7.0347961681       10.4297286464
  H         6.7149338420        5.9313819405       29.9234957127
  H         5.0020079616        5.6257561896       29.8640302968
  C         5.8631308486        5.1582094061       31.6509915016
  H        -9.6660036752        8.8279724154       27.0704481663
  H       -10.2856692216       10.3120838460       26.6094266859
  C        -9.4129656415        9.4240925360       24.9611615576
  S        -3.8221814060       14.0022210275       36.7904355160
  C        -3.4671894278       16.5029093134       37.6159020544
  H         3.1709121192        7.5882337442        9.4860033444
  H         2.5377576341        6.1022476608       10.1485639088
  H         2.3442718336        7.6269080932       11.0059728132
  H         4.9271450310        5.1724426056       32.1799730414
  H         6.5748378822        5.5060604658       32.4185607970
  H         6.1753499800        4.1279164590       31.3323745830
  H        -8.8532625320        8.5194224922       24.8652342471
  H        -8.7545089676       10.0799185202       24.3992102370
  H       -10.3974472481        9.2643815738       24.4815721258
  C        -4.3692487717       14.5654442959       38.3465434205
  N        -4.2250250053       15.9228369284       38.5414312278
  O        -3.1254195047       17.6897529298       37.5261664161
  S        -5.2141176633       13.6593816805       39.6298415545
  C        -4.3993266313       16.5379635679       39.8286752781
  H        -4.7027686925       17.5598264711       39.6176917119
  H        -5.2785646877       16.2071203318       40.4548370402
  C        -3.1572313607       16.4334669210       40.6610304722
  H        -3.5023230750       15.9576219794       41.6391266506
  H        -2.4432548151       15.6572119594       40.3887668239
  H        -2.6857528212       17.4563491944       40.8927677306
