352
 i =    46300, time =    46300.000, E =        24.8235381441
  H        10.3297288084        7.3321525165       33.7698077637
  C        10.8691922454        6.9787510641       32.9493996739
  H        11.5046847971        7.8141103336       32.7502882788
  C         9.8717523575        6.7831007655       31.7672483457
  C        11.7755908299        5.8779843175       33.3968848588
  C        10.6547221868        6.2835275042       30.5032833538
  H         9.0524980065        6.1396085872       32.1088959164
  H         9.4084837049        7.7140789054       31.5010739751
  H        12.6359629132        6.4716023829       33.8288684968
  H        11.2839237649        5.2845950399       34.1776427661
  H        12.1479669488        5.1407319196       32.6604992980
  C         9.7335436892        6.1220049168       29.2938892176
  H        11.0909122618        5.3421141799       30.6515474010
  H        11.3987108882        6.9868596154       30.2403212129
  C        10.3730475069        5.9069803353       27.8994237916
  H         9.0074379050        5.3300128832       29.5117329309
  H         9.1277714204        6.9921930721       29.2501164064
  C         9.3542378769        5.2768415699       27.0501003511
  H        11.2382795170        5.2059334080       27.9905642706
  H        10.6469919506        6.9555761151       27.5611668919
  C         8.3054845302        6.1558287793       26.3788308071
  H         9.8486607272        4.6524371853       26.3589802450
  H         8.8036879149        4.5054923964       27.7153940623
  C         7.1297904266        5.4533408669       25.6826775711
  H         7.9568172667        6.8520139893       27.2012408094
  H         8.9459981202        6.6332937515       25.6248501521
  C         6.7656401765        4.1138960498       26.3914978680
  C         7.6006822523        4.6936806129       24.4426110623
  C         5.8734381399        6.2869430517       25.3676242592
  C         6.9993134678        3.0104376000       25.5605225444
  C         6.2320023811        3.7299789869       27.6346056780
  C         7.5363102753        3.3683777817       24.3522760450
  C         8.1252093689        5.3986631316       23.3546791501
  H         6.1578296767        6.9571366351       24.5103459542
  H         5.7131858937        6.9983980616       26.0851658039
  C         4.6835250302        5.4743158107       24.8662689615
  S         6.6903190237        1.4965425738       26.2526554202
  C         6.1453569407        2.3206861568       27.7298169365
  H         6.0561772936        4.5376188569       28.3207546307
  C         8.0724878612        2.7805049682       23.2520319550
  H         8.0854592385        6.4236793105       23.4363845015
  C         8.5345025747        4.7622113298       22.2526266921
  H         4.8415576216        5.1124190287       23.8712016125
  H         4.5299542907        4.5761698009       25.4891247464
  C         3.4075803019        6.2981610149       24.6887692064
  C         5.6587859827        1.6818836055       28.9672626961
  C         8.5321633429        3.4329262131       22.1110631482
  H         8.1451576260        1.7344162683       23.2318988719
  C         9.0408965233        5.1698794219       21.0469135691
  H         2.7338459528        5.6688592739       24.1312144325
  H         3.7192302854        7.1491155545       24.0834218783
  C         2.6730134648        6.6694894846       25.8807239915
  C         5.6516220869        0.2797225609       29.2817813389
  C         5.1800254554        2.6146434819       30.0591393960
  C         9.0675331851        2.7664248625       20.9410885734
  C         9.4090084696        4.0788636061       20.2687579320
  S         9.1061575676        6.6701474947       20.1891932354
  H         1.9632348720        7.5368748742       25.6771433538
  H         3.3350199982        6.9088200274       26.6324990544
  C         1.8773972995        5.4021940677       26.3900055523
  N         6.0447348554       -0.7965917299       28.4689930735
  C         5.5614252606       -0.1377159964       30.5967811192
  C         5.0210052410        2.0981970450       31.3896806381
  H         5.0720954053        3.6445685443       29.8496145837
  C         8.1082612939        2.0271068569       20.0240174930
  C        10.3502374677        1.9498267267       21.3693892124
  C         9.8046984192        4.5120506916       18.9634205214
  C         9.6857892868        5.8603087971       18.7415402146
  H         0.9630225727        5.1709391000       25.8439781043
  H         2.3752113060        4.4905586384       26.4019967334
  C         1.4819334636        5.7219375293       27.8723969988
  S         6.2511218601       -2.1602018961       29.3372539739
  N         5.8056339492       -1.5135621316       30.7375200848
  C         5.1920135233        0.6625065366       31.6697615248
  H         4.5918164493        2.7004819040       32.1958196812
  H         7.9097072453        1.0830411365       20.5628751371
  H         8.5217162146        1.7122059109       19.0777224095
  C         6.7599670736        2.7144912070       19.6773166726
  H        10.0183024399        0.9613843616       21.6137687355
  H        10.6919773401        2.4276420145       22.3278128671
  C        11.6266818076        1.9755526198       20.5708279341
  H        10.1319997315        3.8134250498       18.2539680248
  C         9.8478218032        6.5582140896       17.4231052945
  H         0.6649494405        4.9777105965       28.0804578664
  H         1.1020276749        6.7452257466       27.8704504306
  C         2.6185538858        5.5588725658       28.9097518637
  C         5.0946808829        0.0386184302       32.9229079236
  H         7.0982739054        3.5450016226       19.1382924195
  H         6.2111008695        2.9997580712       20.5537756491
  C         5.8643699660        1.7210586580       18.9356696781
  H        12.0351201332        3.0137173837       20.4926747595
  H        11.5123091343        1.7026922778       19.5969165683
  C        12.7919153356        1.1721577583       21.2245525056
  C         9.8909048943        7.9292321522       17.2197380099
  C         9.9342827427        5.7291914654       16.2029083597
  H         3.1233499847        4.5845850116       28.7977696087
  H         3.3990225269        6.2963613552       28.7347123999
  C         2.2432626289        5.8028702711       30.3362700370
  H         5.2397738835       -0.9783835842       32.9931691227
  C         4.8067789932        0.4671896404       34.2176023368
  H         5.3246269009        1.1802741354       19.7040490101
  H         6.3588354376        1.0217630496       18.2569015147
  C         4.7222951066        2.3649986756       18.2531269688
  H        12.5191108802        0.9961358018       22.2541560914
  H        12.8951653203        0.2170625026       20.7512098901
  C        14.1830680518        1.8383238069       21.1742729433
  N         9.6350625706        8.8922291621       18.2154345848
  C        10.1056313789        8.5327997559       15.9741152771
  C        10.2926733750        6.2616972422       14.9724754779
  H         9.9046865361        4.6721259456       16.2535244289
  H         1.2548136973        5.3353351080       30.6057351916
  H         2.9673046590        5.3190482731       30.9857185262
  H         2.1749465648        6.8504103863       30.6041856964
  S         4.3202486325        2.0146698653       34.6767984105
  C         4.8725376261       -0.5194969317       35.3089564979
  H         4.4381465714        3.3000405525       18.7272916683
  H         5.1169267908        2.5988555845       17.2762790823
  C         3.4471248414        1.5083066889       18.0104466301
  H        14.2430705701        2.4491109075       20.2201384064
  H        14.9390680992        1.0640626900       21.1285599099
  C        14.4179673512        2.8422126325       22.3295320797
  S         9.5883341088       10.3674047047       17.5619102379
  N        10.0492976005        9.9374306204       16.0135243137
  C        10.3065361835        7.7579159464       14.7968025762
  H        10.4537953189        5.5367639087       14.2028541442
  C         4.2272026251        1.3818922248       36.3366480936
  N         4.4937908495        0.0795493047       36.4720177123
  O         5.1871727999       -1.7160723354       35.2426943139
  H         2.8031367117        2.2737913648       17.5545355813
  H         2.8810635481        1.2842522759       18.9389791098
  C         3.6060231687        0.3011621888       17.1559305943
  H        14.8258543936        3.7571204833       21.8447418613
  H        13.4818698474        3.1593523856       22.8348039192
  C        15.3283178934        2.3466724982       23.4016244200
  C        10.6036934709        8.4619728644       13.6004205921
  S         3.4265260964        2.1413646078       37.6160160022
  C         4.2907203549       -0.6982388858       37.6578812182
  H         3.9997814230        0.6118356719       16.1293614320
  H         4.2354974822       -0.3889775290       17.6936256898
  C         2.2874998150       -0.3875315947       16.8437600266
  H        15.7913696581        1.3665576623       23.1677238603
  H        14.8398600404        2.2257285461       24.3369289375
  C        16.4569111474        3.4055564785       23.6765677029
  H        10.5433386550        9.5005486609       13.6291580465
  C        11.1985999007        8.0626025516       12.3863856532
  H         3.6768602048       -0.4179598664       38.5221826562
  H         3.7055850272       -1.6086927087       37.3275505836
  C         5.7104228615       -0.9254182156       38.2378801185
  H         2.4527870458       -0.9209073437       15.9328137186
  H         1.4989693538        0.3240069721       16.6002469656
  C         1.8387505741       -1.4263401437       17.9198007644
  H        16.1462904394        4.4733902173       23.6267696960
  H        16.9274373534        3.1945747779       24.6461832799
  C        17.6075583395        3.2661134601       22.6403414181
  S        11.8470060404        6.5096557719       12.0189569368
  C        11.4245143839        9.0840993231       11.3339721934
  H         6.1476006846        0.0699514547       38.5488003271
  H         5.6748657099       -1.5172744370       39.1934169372
  H         6.3327778704       -1.4419813106       37.5762177844
  H         1.7083723180       -1.0272250815       18.8833947648
  H         2.7096237009       -2.1192187102       18.0286334159
  H         0.9495992088       -2.0494473434       17.6288702025
  H        18.2455885519        2.4125119635       22.7745098992
  H        18.2749704729        4.0763119645       22.6973936878
  H        17.1777708183        3.2800946765       21.6224631677
  C        12.2660336573        7.1644655737       10.3590304217
  N        11.9820950514        8.5156957326       10.2548106518
  O        11.0143715734       10.2001603967       11.4663129212
  S        12.7068371336        6.3376472889        8.8932943776
  C        12.0761626069        9.2620697608        9.0072633903
  H        12.0726102262       10.3814387408        9.2811859960
  H        13.0090617265        9.1440398132        8.3884869129
  C        10.7960650051        9.1156583568        8.2068264814
  H         9.9682418831        9.5639917955        8.7879242467
  H        10.8700138171        9.5110194487        7.1809235168
  H        10.3601926196        8.0958200785        8.2451259074
  H        -1.6497560728       12.5872683629       16.9510019234
  C        -1.8285233512       13.5914998365       16.6544218945
  H        -0.8974607546       13.9688111137       16.2773317910
  C        -2.4720024468       14.4652541311       17.7710191281
  C        -2.7811281925       13.5169040159       15.4778968915
  C        -3.0207646235       13.5997383572       18.9087893205
  H        -1.6908097620       15.1273361071       18.1761181533
  H        -3.2298227634       15.0861893028       17.3235543477
  H        -3.8032396718       13.9507186426       15.7470323816
  H        -2.4619373179       14.0544850917       14.6106388984
  H        -3.0161143919       12.4892023423       15.0828850127
  C        -2.0025747367       13.3299679720       20.0164657167
  H        -3.6008481743       12.7164401742       18.6647848939
  H        -3.7646458569       14.2390918952       19.3840761709
  C        -2.4402364428       13.5060106237       21.4384007919
  H        -1.5523743309       12.3631334580       19.9278074867
  H        -1.1406680403       14.0876877296       19.8924016051
  C        -1.4396794554       12.9951996783       22.4407324922
  H        -3.3382348819       12.9409399360       21.5772794494
  H        -2.6393926601       14.4579850345       21.7870568434
  C        -0.1604528495       13.8104897758       22.3837828391
  H        -1.9131584908       13.1323459457       23.4284028441
  H        -1.3156981590       11.9241204637       22.2650484207
  C         0.9466193492       13.1730208082       23.2219204900
  H         0.2557395577       14.0965773002       21.4056003320
  H        -0.5225332438       14.7170915181       22.8925915096
  C         1.2698430248       11.8088651514       22.5439951854
  C         0.5388333855       12.5332188138       24.4962684754
  C         2.2167413553       14.1006888050       23.3592004457
  C         1.0309826762       10.7143892900       23.4010942284
  C         1.8009544913       11.4740789270       21.3411128667
  C         0.5611600975       11.1568242452       24.6629732973
  C         0.1628915163       13.2274148858       25.6666618754
  H         2.4682384252       14.4437387566       22.3555650178
  H         1.8543725238       14.9325334530       23.8860978949
  C         3.4506206979       13.3825042351       24.0202015695
  S         1.4005328849        9.2510393984       22.6434872759
  C         1.9063029648       10.1145691816       21.1450340607
  H         2.1691241638       12.2574802729       20.6312562225
  C         0.2013315348       10.5905179007       25.8417125068
  H         0.2528562343       14.2765668751       25.8077872598
  C        -0.2164859027       12.6437553425       26.8171828664
  H         3.7107103140       12.5537833528       23.3081170198
  H         3.2274979787       12.8806523220       24.9358536976
  C         4.6632883421       14.2152730969       24.3023599060
  C         2.3158847047        9.4863375395       19.8647431827
  C        -0.1788101350       11.2972975138       26.9842955453
  H         0.1884261048        9.4781461178       25.9747132671
  C        -0.5354483544       13.0976067312       28.0353733482
  H         5.2469388393       13.6012919089       25.0082236391
  H         4.3091443828       15.1548993260       24.7821355568
  C         5.4171638493       14.4563950007       22.9986516948
  C         2.3301416128        8.0154489199       19.6094505451
  C         2.8171300527       10.3156948783       18.7454763088
  C        -0.5616780703       10.5647278793       28.2150968527
  C        -0.7165804074       11.9931626966       28.8779161334
  S        -0.6742404631       14.6515090080       28.8566399961
  H         5.9169677846       15.3990317943       22.9940599914
  H         4.6477398198       14.6386615672       22.1737861179
  C         6.4517508461       13.3212183306       22.6272583783
  N         2.0121879754        6.9977955653       20.5859520930
  C         2.6228050967        7.4376266481       18.3784932736
  C         3.1961296940        9.6796741297       17.5237757372
  H         2.9678265263       11.3909453645       18.8337800197
  C         0.5407984667        9.7257566289       28.9507550719
  C        -1.9276141912        9.8820993228       28.2068946258
  C        -1.1276304809       12.4480806928       30.1617995028
  C        -1.0218783983       13.8084209519       30.3074080510
  H         7.0762687297       13.0710252947       23.4733602851
  H         5.7911430387       12.4989255718       22.4168232211
  C         7.3459466885       13.7231432561       21.4435039741
  S         2.1638394587        5.5413745483       19.8665461596
  N         2.5343216334        6.0471219013       18.3915110202
  C         3.0974012000        8.2346592491       17.3230875554
  H         3.5242463407       10.3088776748       16.7318676070
  H         0.9563613560        9.0592726569       28.2087073298
  H         0.0685163787        9.1039708563       29.7558621324
  C         1.7106505289       10.6142944367       29.4532166524
  H        -1.9102719645        8.9010186323       27.7067074765
  H        -2.1747845583        9.8480881461       29.2544651187
  C        -2.9849813295       10.7461255886       27.6006264238
  H        -1.3740687719       11.7167489843       30.8508023017
  C        -1.2956949312       14.5362273276       31.6740817966
  H         8.4207518280       13.4314604757       21.6091867202
  H         7.2516859577       14.8012899008       21.3217697329
  C         6.8651456813       12.9627351918       20.1595338139
  C         3.4600828731        7.6357766510       16.0706684374
  H         2.0465077519       11.2242955514       28.5271114256
  H         1.3940234260       11.2224391827       30.3045025338
  C         2.8562667757        9.6977113251       29.9257054034
  H        -2.7489107381       10.8820262641       26.4985358853
  H        -3.2546479271       11.7018499679       28.1159008805
  C        -4.2901331251        9.9623653051       27.6180367825
  C        -1.5023486084       15.9316276223       31.7898081490
  C        -1.5515761882       13.7513883056       32.8468120926
  H         7.6292232286       12.9673507019       19.3623802146
  H         6.6188128762       11.9334233242       20.4145423847
  C         5.6372014932       13.4740468377       19.4493223217
  H         3.5252991312        6.5681635570       16.1582286577
  C         3.6533264798        8.0346839877       14.7673262507
  H         3.0351697736        8.8471747600       29.2299153559
  H         2.6017745151        9.4426657577       30.9383204252
  C         4.1486812047       10.3934573989       30.1742175102
  H        -4.2246381145        9.0218071160       27.0527141569
  H        -4.6710713459        9.6805719120       28.6478412684
  C        -5.3784184150       10.8010159491       26.9058646449
  N        -1.5538134610       16.8129375083       30.7280710743
  C        -1.7005833232       16.5698718116       32.9764762863
  C        -1.9600888547       14.3841551918       34.0578646919
  H        -1.2841650338       12.6951653140       32.7832886831
  H         4.7478596136       12.9466274925       19.7532666821
  H         5.5355278733       14.5546788009       19.5320515743
  H         5.6519127190       13.2250593786       18.4044923719
  S         3.9380988382        9.6436472031       14.2987245624
  C         3.7506296237        7.0342085775       13.6708372329
  H         4.5746833462       10.8223185678       29.2963066987
  H         3.9816311657       11.3018120019       30.7584920092
  C         5.2721134152        9.5169754376       30.7528458100
  H        -4.8221089072       11.3121890862       26.2128160712
  H        -5.8415003851       11.4846153644       27.5895976738
  C        -6.3635250981        9.9597492249       26.1107025919
  S        -1.4254100767       18.3422605578       31.3104585320
  N        -1.8022275287       17.9903260943       32.8467432677
  C        -2.0780460772       15.8568358225       34.1581768791
  H        -2.2211553375       13.7599793005       34.8553785864
  C         4.1088010034        9.0260762362       12.6224621926
  N         4.0275964945        7.6394478464       12.5388542320
  O         3.5146519657        5.8123976130       13.8540953449
  H         4.8476109602        8.9436313979       31.5405567760
  H         6.0094581346       10.1067521779       31.2589584361
  C         5.7889867377        8.5356201981       29.7079713158
  H        -5.9262487045        9.1451369508       25.5302045136
  H        -7.0499464250        9.4350026524       26.7737206974
  C        -7.2273085799       10.8229811104       25.1860586466
  C        -2.5364899385       16.5377236535       35.3176916414
  S         4.6128925047        9.9575624779       11.2379220366
  C         4.0508452259        6.8886137855       11.2844126183
  H         4.9432458796        7.9569644102       29.2075349034
  H         6.1690040365        9.1492589641       28.9443255353
  C         6.6601412266        7.3485153027       30.2172224451
  H        -6.5750994728       11.3052333386       24.4570474383
  H        -7.6310979977       11.5245074746       25.8753512717
  C        -8.2692296096        9.9392016928       24.5832613490
  H        -2.4067203989       17.5440392955       35.1432490516
  C        -3.0223395529       16.1968270549       36.5470686837
  H         4.7373311702        7.3088102939       10.5901989530
  H         4.4048164916        5.8798132599       11.5389768559
  C         2.6835229137        6.7765672466       10.6484949698
  H         7.6562242101        7.6712027023       30.4089707995
  H         6.7732483261        6.6642056800       29.4470153040
  C         6.1128275530        6.6481680759       31.4295306847
  H        -8.5163810201       10.5181712820       23.7378146491
  H        -7.9917894162        9.0333522370       24.1527734811
  C        -9.3719260292        9.7608521324       25.6520692254
  S        -3.5314211309       14.6324095892       37.0978647809
  C        -3.0861098376       17.2985539075       37.5605346552
  H         2.2437486519        7.8013477117       10.4033298907
  H         2.6512013913        6.1151179220        9.7639369785
  H         1.9015390610        6.3398279224       11.3661876645
  H         4.9983314760        6.4803069162       31.3644054062
  H         6.3722319409        7.2777847135       32.2588349411
  H         6.6306372316        5.7289520878       31.7554557100
  H       -10.3897439148        9.5981583257       25.2730580930
  H        -9.3924429693       10.5998556473       26.4242128002
  H        -9.1775875918        8.9311399038       26.2535507172
  C        -3.7835092354       15.4750299451       38.6743089167
  N        -3.6924007330       16.8150651880       38.6734168145
  O        -2.7042827141       18.4358430934       37.3926535840
  S        -4.4667491060       14.7328134199       40.1753146352
  C        -3.6625526452       17.6320032070       39.9179244687
  H        -3.5956932826       18.6418141132       39.6760440289
  H        -4.6418679294       17.6717738555       40.4714901063
  C        -2.4936960589       17.2399574349       40.8306867834
  H        -3.0474184335       17.0157430086       41.8003329019
  H        -1.9641096018       16.3153452574       40.4679181793
  H        -1.7004149965       18.0089666808       40.9321106220
