352
 i =    70200, time =    70200.000, E =        25.0077367791
  H        12.3612154964        4.4989355922       31.8678605212
  C        11.7763008771        5.2232372100       31.2865634341
  H        11.0423396032        4.6920116635       30.6658126421
  C        12.5682495022        6.0195233568       30.2145626811
  C        11.2539711677        6.1288775911       32.3547209046
  C        13.1082997016        5.2992978691       28.9438530364
  H        11.9086080239        6.8675404798       29.9094388688
  H        13.4417045474        6.5277345741       30.7257125710
  H        11.7680022435        5.8303605743       33.2506748313
  H        11.2498722618        7.1844778722       32.0550416822
  H        10.1715880662        5.9264364919       32.4105740553
  C        11.9987447085        4.5720120782       28.1412626335
  H        13.9343326020        4.6549566171       29.3263418250
  H        13.5585430702        5.9950326698       28.3612252832
  C        10.8256817823        5.3461470872       27.7116790354
  H        12.3933065643        4.1850376140       27.2127601342
  H        11.7611339938        3.6047257796       28.6576860796
  C         9.8777044831        4.5579376954       26.6812498050
  H        11.1793454620        6.2086756447       27.2276046455
  H        10.1746756277        5.6896781935       28.5083442416
  C         8.7828787259        5.4744257639       26.0810170899
  H        10.4906567627        4.3136467457       25.8533727305
  H         9.4413196593        3.6419318229       27.1584913340
  C         7.6914357250        4.7111927959       25.2381100065
  H         8.1905627891        5.8511628440       26.9114331331
  H         9.1765970917        6.3100333770       25.5072035108
  C         7.2717784982        3.3110823832       25.8692408516
  C         8.2018565299        4.0264451983       24.0553985781
  C         6.4513645336        5.5687513255       24.7918716253
  C         7.6576893118        2.2553195806       25.1227123149
  C         6.7261064850        2.9270982304       27.1182832641
  C         8.0999112559        2.6982702587       23.8959500725
  C         8.6461152620        4.7389021887       22.8973052137
  H         5.9380979803        5.0041839008       24.0366864844
  H         6.9074285001        6.4142134519       24.3083135382
  C         5.4243358107        5.9320558378       25.8289722336
  S         7.2721620688        0.7686039414       25.8592177845
  C         6.6465009544        1.5429795854       27.2348574276
  H         6.6219420291        3.6596555388       27.8764598310
  C         8.5098086036        2.1328284687       22.7422132087
  H         8.7133692759        5.8206329297       22.9341007594
  C         8.9405922293        4.1818946355       21.7141120893
  H         5.1228067197        4.9582136959       26.2761910764
  H         5.8687667238        6.6836560599       26.5031573762
  C         4.0538021718        6.3542489982       25.3134180911
  C         6.0852241842        0.8852982474       28.4991772125
  C         8.8927986390        2.8554490101       21.6226029366
  H         8.4146440052        1.0544807722       22.4945232555
  C         9.3419199946        4.5964205503       20.4926300722
  H         3.6385781561        5.6596191655       24.7109100087
  H         4.1247189632        7.3521317835       24.8761384946
  C         2.9456660360        6.3794884907       26.4197879043
  C         6.2053300178       -0.5015746718       28.7261172772
  C         5.7167583228        1.7467496558       29.6270564932
  C         9.2401550617        2.1225481882       20.3541472424
  C         9.5423256303        3.4972156382       19.6541250396
  S         9.6396958396        6.1315399303       19.8214032770
  H         2.0568052912        6.9629072955       26.0882201984
  H         3.3616872046        7.0032460676       27.1521679770
  C         2.4640285391        5.0108382084       26.8047648004
  N         6.4100796917       -1.4699220295       27.7383795664
  C         5.9862245612       -1.0541610455       29.9857266060
  C         5.3593495935        1.1665692128       30.8511558222
  H         5.7270540460        2.8171328999       29.5256649091
  C         8.0456549096        1.4076140897       19.7187681576
  C        10.5027943307        1.2509171672       20.5057098133
  C        10.0474438223        3.9664232035       18.4043344772
  C        10.0195738340        5.3339415136       18.2718506045
  H         1.5593103270        4.7255502220       26.3406783742
  H         3.1691218016        4.1471732580       26.5257605390
  C         1.9922287862        4.9629166720       28.3133548134
  S         6.3265895132       -2.9152388001       28.4934989948
  N         6.0033688770       -2.4136121000       29.9703141022
  C         5.5690507025       -0.3047680535       31.1268219405
  H         4.9958720273        1.7661054857       31.6043149541
  H         7.7861444763        0.6501203141       20.4718538292
  H         8.4120839306        0.7316151554       18.8958875676
  C         6.9624622672        2.3334929823       19.3090804495
  H        10.6365091454        0.8559914249       19.5411216592
  H        10.2697499681        0.3077113518       20.9870579702
  C        11.7024301515        1.9378405632       21.2560443903
  H        10.3713757796        3.2171032726       17.6684443201
  C        10.3503925406        6.0665801468       17.0236050399
  H         1.0944152109        4.4386925479       28.4558139021
  H         1.6170771440        5.9876233956       28.4290590619
  C         3.1788747415        4.6397724701       29.3154921158
  C         5.3175306625       -0.9957201115       32.3236218113
  H         7.3998136443        2.7621441695       18.4301735210
  H         6.8540611801        3.1602257768       20.1188831077
  C         5.5512826090        1.8116745240       19.0051659111
  H        11.3190793375        2.0773630450       22.2835617233
  H        11.8636995543        2.9179873136       20.8279024834
  C        12.9586542738        1.1646102445       21.4735296329
  C        10.4243407564        7.4823822385       16.8378889908
  C        10.5683156665        5.3000565081       15.7698028603
  H         3.4383959505        3.6104684441       29.2949485829
  H         4.1074229265        5.0264384297       29.0050315024
  C         2.7285429235        4.9241516763       30.7216670994
  H         5.4725041664       -2.0540492543       32.2614134969
  C         5.0347410867       -0.5889728193       33.6497898804
  H         4.8860869856        2.6633582580       19.0859767171
  H         5.4485502763        1.0108712948       19.7723318712
  C         5.4624463775        1.1568093031       17.6492461344
  H        12.6855765220        0.3767918627       22.0715452315
  H        13.3674360954        0.7257543889       20.4977130906
  C        13.9301120317        2.0657469999       22.2092251598
  N        10.0263884696        8.4456333062       17.8048394749
  C        10.7155357071        8.0679202066       15.6649114951
  C        11.0294483131        5.8445142665       14.6258304502
  H        10.4305553317        4.2032180120       15.8319446335
  H         2.6289033051        6.0475018523       30.9649046610
  H         1.7301582370        4.4987648077       30.9297584447
  H         3.4920262024        4.4755721595       31.3407910415
  S         4.7785756939        1.0607835073       34.1360917398
  C         4.9944512225       -1.5683441860       34.8553167353
  H         5.8969504823        1.6537806647       16.8004868211
  H         5.9109136463        0.2355573145       17.7646243825
  C         3.9530289866        0.8539002771       17.3454510801
  H        13.5190496826        2.5283769965       23.1670100627
  H        14.1480635793        2.8443684640       21.4767525631
  C        15.2244901782        1.3039957965       22.5287791139
  S        10.2519585851        9.8937192943       17.1715790689
  N        10.5566696349        9.4351985445       15.6306476055
  C        11.1190635841        7.3333920399       14.4763889668
  H        11.1781921938        5.1524495926       13.7985103299
  C         4.4981296723        0.4717761643       35.8034460884
  N         4.6220776335       -0.8620323717       35.9822478648
  O         5.1944016897       -2.7724257811       34.7873170224
  H         3.8745184819        0.6016379211       16.2994727380
  H         3.4792399097        1.8838306326       17.4368340425
  C         3.2741705626       -0.1407193302       18.2850271931
  H        15.1276526288        0.7407082588       23.4641594841
  H        15.3405783794        0.5996500469       21.7067984024
  C        16.4222757465        2.1668431405       22.5102703777
  C        11.5298524836        7.9909368945       13.2931107253
  S         4.3653206705        1.3796014220       37.2878207991
  C         4.6713806532       -1.6252001695       37.2519590591
  H         3.5414837604        0.1483036653       19.2987495885
  H         2.2488415449        0.1132378786       18.2929840214
  C         3.4441817833       -1.6698949118       17.9857025821
  H        16.0589823921        2.9409813380       23.2245171038
  H        16.6623126418        2.5871077877       21.5282505508
  C        17.6174123416        1.4726628688       23.1631400449
  H        11.5030944803        9.0418922222       13.4289337881
  C        11.9735884468        7.6208355306       12.0080700623
  H         3.9910650881       -1.1330918676       37.9579342168
  H         4.2498401691       -2.5846900018       36.9216707484
  C         6.1437561341       -1.7968483153       37.8531514620
  H         3.2689499160       -2.2554696037       18.9311508726
  H         4.5177309055       -1.9329131354       17.7497767960
  C         2.4719359665       -2.1353856430       16.8542139527
  H        18.0150303981        2.1019800627       23.9875260159
  H        17.2644016133        0.5037430821       23.6267758042
  C        18.9351924235        1.3071124667       22.3998041592
  S        12.4970019135        6.0246301572       11.4711464731
  C        12.0332510778        8.6944654253       11.0023731691
  H         6.8152663516       -1.1385123502       37.2551331698
  H         6.1967757526       -1.6564120294       38.9281460218
  H         6.5339938906       -2.7891604334       37.7109046421
  H         1.9034233461       -3.0779638044       17.0527697155
  H         3.0829065797       -2.2848871472       15.9538401568
  H         1.5889759344       -1.5451684307       16.6810491800
  H        19.3664551685        2.1655713768       22.0266245577
  H        18.8533170982        0.7004378832       21.5124515411
  H        19.6505947697        0.8651038016       23.0535515025
  C        12.6959651097        6.8017465676        9.8704358774
  N        12.5478752403        8.1461955535        9.9021457043
  O        11.5976256968        9.8172049710       11.2604574976
  S        13.4166068164        5.9147492053        8.5097243438
  C        12.6373042766        8.9450610366        8.6650956777
  H        12.9120018673       10.0315594734        8.8336702563
  H        13.5003878150        8.6727653220        8.0386363517
  C        11.4200787726        8.8571500037        7.8194642644
  H        10.6596504379        9.1765524407        8.4299252477
  H        11.5541967515        9.4483967278        6.8582132927
  H        11.2858111996        7.7509253803        7.5388746155
  H        -3.8652199737       14.7036231590       16.6609677876
  C        -3.4397164504       13.7626477291       16.4964167352
  H        -4.1422927817       12.9902742938       16.8372823597
  C        -2.1914493298       13.6189078890       17.4019859167
  C        -3.1454443188       13.4174067315       15.0375620068
  C        -2.4201458656       14.0873978169       18.8196677901
  H        -1.8491253531       12.5357930491       17.4204568733
  H        -1.2984770784       14.2158723586       17.0921038239
  H        -2.1915203833       12.9644465845       14.8754850216
  H        -3.9709026399       12.6913689640       14.6119399484
  H        -3.1489749114       14.3321733842       14.4435404644
  C        -1.7657114001       13.1575896127       19.8705193857
  H        -3.4825063383       14.1780652305       18.9829272780
  H        -1.9601187394       15.0679560450       18.9578797720
  C        -2.2826767094       13.4207571494       21.3572753384
  H        -1.9602608154       12.1302484810       19.5381952956
  H        -0.7203589793       13.3749827806       19.9064325723
  C        -1.3456326429       12.6957009184       22.3751292033
  H        -3.2414062529       12.9213189002       21.5385935026
  H        -2.3458196846       14.4764324370       21.5448339302
  C        -0.1970413789       13.6879664180       22.7395052065
  H        -1.7461214792       12.3766791799       23.3655527336
  H        -1.0697086868       11.6995013957       22.1147498095
  C         1.0479767578       13.1345379360       23.3820235795
  H         0.1932782621       14.0757784472       21.7603357285
  H        -0.5453403043       14.5890915508       23.2588468740
  C         1.5113424145       11.8071031859       22.6836209810
  C         0.7504295902       12.3547197180       24.6709292548
  C         2.2382796554       14.1692481787       23.5442218364
  C         1.3089536411       10.6664498202       23.4622821502
  C         2.1160871736       11.4061604734       21.4389498088
  C         0.8734093920       10.9969045459       24.6908599697
  C         0.1516859871       12.9826112485       25.7801558329
  H         2.2582109000       14.7532133554       22.6997885624
  H         2.0051691658       14.9026403482       24.3273697897
  C         3.6812387687       13.5995356172       23.7772059311
  S         1.8037568545        9.1954343652       22.7161766569
  C         2.2469689838       10.0559455671       21.2923968273
  H         2.3731183695       12.2179086689       20.7931310519
  C         0.5332037587       10.3682324449       25.8291012058
  H         0.1165541032       14.0444389933       25.6965586725
  C        -0.1048052603       12.2883026900       26.9214238140
  H         3.8798399115       12.6352675407       23.3151275809
  H         3.6881091684       13.3588081256       24.8065611077
  C         4.8279718490       14.6152513878       23.4995979572
  C         2.8098640609        9.3755122052       20.0307126784
  C         0.0218118821       10.9510864120       26.8990282694
  H         0.7759184060        9.3256111230       25.8141572878
  C        -0.5760771378       12.5800450681       28.1810887753
  H         5.5618378663       14.4548078058       24.2907443448
  H         4.4740072872       15.6678668903       23.6934671305
  C         5.5578859371       14.4790500433       22.1253992474
  C         2.9258795541        7.9948902417       19.8301247902
  C         3.1020978582       10.2261880681       18.8104617492
  C        -0.4016024528       10.1422346172       28.1117712495
  C        -0.7790227985       11.4358584725       28.9671906262
  S        -0.8241959118       13.9355493675       29.0767219084
  H         6.1035828877       15.3532895218       22.1557613218
  H         4.9514771084       14.4335636391       21.1973912756
  C         6.4183628550       13.2521144128       21.9835434901
  N         2.6238981279        7.0680834879       20.8010858664
  C         3.2781776545        7.4667680702       18.6023545646
  C         3.5099323597        9.7092580255       17.6296320238
  H         3.0418293926       11.3441998954       18.8537200339
  C         0.6564292209        9.2608009241       28.8174517417
  C        -1.6366868252        9.2079463168       27.9393913177
  C        -1.2871054588       11.7329946594       30.2015985050
  C        -1.3101832533       13.0859005034       30.4796743404
  H         6.9561580618       13.1277711080       22.8868936862
  H         5.7752077536       12.4034479962       21.7765567810
  C         7.4995328735       13.2716407852       20.9376231447
  S         2.8619871333        5.6338842332       20.1139377654
  N         3.4183243030        6.1090658944       18.6747730420
  C         3.6281966268        8.2353727835       17.4574187309
  H         3.6695880050       10.3823065874       16.8204331775
  H         0.9127455467        8.3929596750       28.2279055193
  H         0.3140411088        8.8754624765       29.7621940042
  C         2.0638432077        9.8881960442       29.0613837125
  H        -1.3381900493        8.4488641305       27.2412589845
  H        -1.8085934670        8.8196768255       28.9179878874
  C        -2.9006280958       10.0770007942       27.4796486034
  H        -1.5441314536       10.8876618914       30.8444842851
  C        -1.4931004525       13.7271640286       31.8537765312
  H         8.1717593212       12.3867405853       21.1637259111
  H         8.1763166467       14.2310874080       21.0146034330
  C         6.9536807039       13.2342827680       19.4487071943
  C         3.8478134007        7.5224854294       16.2653493422
  H         2.6186569958       10.1191388920       28.1529754784
  H         1.9952057843       10.8903365241       29.4444264243
  C         2.9507935792        8.9901085018       29.9892602319
  H        -2.6231043463       10.6761754101       26.6015301766
  H        -3.2303137035       10.8025704405       28.2933733352
  C        -4.1904937401        9.2935637792       27.2458399733
  C        -1.5624746731       15.1138071215       32.0409419523
  C        -1.6441166288       12.8890159918       32.9709872316
  H         6.2345816178       12.4836687815       19.1905368529
  H         6.4919644928       14.1827105454       19.3208825135
  C         8.2676370470       13.2353351478       18.5792772888
  H         3.8639286841        6.4756937707       16.3811765914
  C         4.0229083025        7.8500559246       14.9279052450
  H         3.2480704984        8.1329288710       29.3665736167
  H         2.3662026998        8.7284588891       30.8606668643
  C         4.2961110054        9.7541573290       30.3263657211
  H        -4.1854691613        8.7032595735       26.3261223834
  H        -4.4069500877        8.5979994953       28.0317560314
  C        -5.3330837419       10.2336593482       27.1090758194
  N        -1.2356269954       16.1136168014       31.0383353033
  C        -1.7835406133       15.6816892479       33.2657207375
  C        -1.7805831563       13.3929847972       34.2658070796
  H        -1.6461909749       11.8252765322       32.7786522324
  H         8.2917542897       14.2717819252       18.2405321420
  H         9.1567989064       12.9964448219       19.1319082217
  H         8.3299309356       12.6401869872       17.6589120469
  S         4.2557497474        9.3886127219       14.3840327522
  C         4.0830927298        6.7646980767       13.9469298143
  H         4.4060944143       10.4441180936       29.4860426024
  H         4.2125512458       10.3650502819       31.2384178325
  C         5.4741836590        8.8541549422       30.2532719302
  H        -5.0505084316       11.0999791751       26.4502986816
  H        -5.6434355781       10.6970115491       28.0971198837
  C        -6.6320314899        9.5507036107       26.6377090247
  S        -1.1161816923       17.5620630833       31.8068966195
  N        -1.5774575060       17.0898338749       33.2932568914
  C        -1.9515904272       14.8887491600       34.4272278420
  H        -1.8760625778       12.6839153580       35.1059003648
  C         4.4393783788        8.6488289158       12.7853045536
  N         4.4634106342        7.2973978153       12.7271121920
  O         3.9816493577        5.5747866049       14.2649449860
  H         6.4203202482        9.3509796973       30.4629182190
  H         5.5393125191        8.3830923977       29.2461515128
  C         5.1835032992        7.6835140500       31.2126550880
  H        -6.4058561306        8.7446785870       25.8717223825
  H        -7.2075853698        9.1126430229       27.5028300142
  C        -7.3838588317       10.6137880595       25.7606176677
  C        -2.1912880320       15.5948713861       35.6257655727
  S         4.8819832723        9.5143001117       11.3399151019
  C         4.6510469249        6.5677506353       11.5303237256
  H         4.7715732924        8.0213896044       32.1341193645
  H         4.5402828795        7.0373098180       30.6199589657
  C         6.4561859450        6.8864307840       31.4513073078
  H        -6.9251534455       11.1651019785       24.9569359305
  H        -7.8313861581       11.4736285861       26.3230055605
  C        -8.6030096018        9.9141740665       24.9930474379
  H        -2.1567212515       16.6416747698       35.5619129703
  C        -2.8350476476       15.1657408945       36.7142639322
  H         5.4170177031        6.8750213147       10.9000254993
  H         5.0111523861        5.5797358533       11.7819779598
  C         3.2824852552        6.4814097875       10.8203166831
  H         6.2547230512        6.0184200510       32.0918880303
  H         7.1344568127        7.5814443175       31.9414780470
  C         6.9991718043        6.3059836042       30.1197900058
  H        -8.9532715229       10.6300049978       24.2164626181
  H        -8.2342800008        8.9700809066       24.5469562924
  C        -9.7495794900        9.5360132006       25.9459927833
  S        -3.5214381098       13.5947937774       36.9169585403
  C        -2.9121604828       16.0899626857       37.8521757738
  H         2.9084556051        5.5089895395       10.9525908048
  H         2.5479352178        7.2473329534       11.1415008270
  H         3.2393353544        6.6261594846        9.7309719875
  H         7.9233305975        5.6773762355       30.3753597078
  H         7.3439827626        7.0521769652       29.4415594066
  H         6.1848101850        5.8426060767       29.6541286977
  H        -9.4741849871        8.6972701759       26.5322540688
  H       -10.6067490837        9.2646448827       25.4269350719
  H       -10.0754530633       10.3337794149       26.6036652495
  C        -3.9966762453       14.2554473631       38.4687513650
  N        -3.6382250954       15.5161212790       38.7625176137
  O        -2.3441400724       17.1727843837       37.9504245492
  S        -4.9259988571       13.4857178634       39.7221682093
  C        -3.9712597303       16.1953111872       40.0924953724
  H        -4.2672791293       17.2024475187       39.7761381784
  H        -4.8591925675       15.9323035997       40.6848048234
  C        -2.7935781899       16.1846275231       41.0292409884
  H        -2.3462071019       17.1711998926       41.0890751107
  H        -3.0467450031       15.8157932534       41.9833167348
  H        -2.1112653343       15.4963970666       40.6717570105
