352
 i =    89800, time =    89800.000, E =        25.0420118013
  H        10.6054155466        7.4306836387       31.2232633799
  C        11.1450833060        6.6041372258       31.6596866531
  H        12.1416012460        6.9534910778       31.9802006521
  C        11.4685987585        5.5224382677       30.5520426700
  C        10.3644478331        5.9222355224       32.8569092980
  C        10.2319736073        5.1266915325       29.7331711459
  H        12.0576659291        5.9668833437       29.8254144582
  H        11.9633467911        4.6789409648       31.0643251882
  H         9.3422822672        5.9693546037       32.8198250209
  H        10.6127815591        4.9171867687       33.0558624454
  H        10.6252947945        6.6291258084       33.6514635791
  C         9.8550582076        6.2182383225       28.6825591153
  H         9.4728745602        4.7633694105       30.4395565660
  H        10.3328607512        4.1724222720       29.1946177421
  C        10.1502265802        5.8906435843       27.2290299968
  H         8.7960193158        6.4805160785       28.8098897631
  H        10.3636309778        7.1059877681       28.9881717120
  C         9.2161202211        5.0317609426       26.5082122309
  H        11.1079746904        5.3091460113       27.1521388258
  H        10.1482256753        6.7681026626       26.5316740036
  C         7.9216883101        5.8317184477       26.1394887076
  H         9.6671625861        4.6890124946       25.6085417481
  H         9.0347058871        4.2118385471       27.1747010171
  C         6.8942647233        5.0231354955       25.3549850160
  H         7.4443266096        6.1577252851       26.9955665887
  H         8.1258158697        6.6940708796       25.4977240649
  C         6.6000206479        3.7075805124       26.0649252525
  C         7.4688165057        4.2692506170       24.1226839366
  C         5.5397806936        5.7559429627       25.1043750439
  C         6.9339154377        2.5618998005       25.2809314460
  C         6.2426951277        3.2970291190       27.3757142604
  C         7.3945562739        2.9049021412       24.0282104991
  C         7.9609762057        4.9286473718       22.9556123494
  H         4.9467090381        5.1498647111       24.3337306615
  H         5.7366887357        6.8153158160       24.7311879062
  C         4.6985881635        6.0353277393       26.3306638262
  S         6.4866657806        1.1269991660       26.0457006294
  C         6.1831597841        1.9580772041       27.5007446931
  H         5.9607459738        3.9453892860       28.1488850747
  C         7.9600458237        2.2274329416       22.9538979723
  H         7.8235144882        6.0140440095       22.8811249591
  C         8.3271945701        4.2267173432       21.8547058627
  H         5.0457794769        5.6612895153       27.2416549244
  H         4.6508619085        7.1120602524       26.5422486775
  C         3.3332733842        5.5899458258       26.0846333065
  C         5.7817313615        1.2562249843       28.8096029128
  C         8.3799759564        2.8541747370       21.7832993884
  H         7.8571669159        1.1561410149       22.9807784785
  C         8.7882472239        4.5848554524       20.6514155142
  H         3.2973826946        4.5060884794       25.9774669371
  H         3.1387411849        5.7552096895       25.0556254331
  C         2.2008030001        6.0603908646       27.0343486415
  C         5.9624591275       -0.1305629822       29.1495738549
  C         5.1805959967        2.0200076114       29.9299401930
  C         8.7619558382        2.1226262100       20.5545599906
  C         9.0499755032        3.5044638414       19.8519809108
  S         9.1008344663        6.1661594758       19.8919737530
  H         1.3412349037        6.4574379260       26.4342570103
  H         2.6067532222        6.8120589002       27.7227428576
  C         1.7967573496        4.8219875502       27.9688557331
  N         6.6291355189       -1.1040490841       28.3181317045
  C         5.6836493676       -0.6896655658       30.4215319680
  C         4.9080866602        1.5184051131       31.2766100998
  H         4.9409672850        3.0424546819       29.7004035063
  C         7.5727325433        1.3705273213       19.8809802295
  C        10.0431950539        1.2187954290       20.6078482746
  C         9.5151913837        3.9115525263       18.6317999726
  C         9.4603530851        5.2929896457       18.4301840844
  H         1.1249357174        4.1822702489       27.3660123470
  H         2.6085746905        4.2585668243       28.3296191245
  C         0.8723805562        5.3403518572       29.1063551620
  S         6.6022910332       -2.5205724811       29.1348014359
  N         5.8498839299       -2.0610468758       30.4739550021
  C         5.1808828826        0.0546738837       31.5051750097
  H         4.5055496977        2.2627695868       31.9465973331
  H         7.2715463876        0.4286418071       20.4504148094
  H         7.8168962534        1.0188012700       18.8655795688
  C         6.2955765092        2.2462553223       19.8027064623
  H        10.0399070523        0.6845898633       19.6449580700
  H         9.9151728072        0.4031768507       21.3150183633
  C        11.2249979921        1.9329232366       21.0419202543
  H         9.8670571159        3.1371656643       17.9196384801
  C         9.7768562708        6.0167867753       17.1645640507
  H         0.5576060918        4.3852441391       29.5162395911
  H         0.0404976317        5.8431630070       28.6418008295
  C         1.4313800193        5.8258457810       30.4519137775
  C         4.9309590158       -0.5860900373       32.7017445698
  H         6.3371376603        2.9976053983       19.0107204734
  H         6.0251647488        2.7151379727       20.7509538224
  C         4.9994615848        1.4930591109       19.3998535549
  H        10.9773997513        2.5550718640       21.9542231366
  H        11.4144564994        2.6982554355       20.2858414119
  C        12.4626418148        1.0369149153       21.1826928194
  C         9.7861742108        7.4200096064       16.9587761311
  C        10.2270361866        5.2782470124       15.9571554496
  H         2.0609561176        6.6857186410       30.3526774293
  H         0.5747862416        6.2003770813       31.0022956929
  C         2.1788014789        4.8186945283       31.3925349519
  H         5.0326136436       -1.6370336996       32.7029393847
  C         4.6476141021       -0.1344975595       33.9427223909
  H         4.1099356627        1.9726034835       19.8977694209
  H         5.1896418441        0.4446186600       19.7370019159
  C         4.6435078191        1.6731482819       17.9222178714
  H        12.3517257783        0.2133448108       21.8888149370
  H        12.6191847651        0.4432792819       20.2463958216
  C        13.6553985330        1.8622324258       21.5418632688
  N         9.4180997497        8.3342765266       17.9659433230
  C        10.0918724622        8.0341190576       15.7586032773
  C        10.4811278428        5.8450985356       14.7250633009
  H        10.4652662995        4.2201719485       16.0790785271
  H         2.7137398304        5.4207862432       32.0698046287
  H         1.6619050530        4.0280840940       31.9605444338
  H         2.8610188931        4.3167738873       30.7001064828
  S         4.4578780429        1.5040488941       34.5295528886
  C         4.5794814725       -1.1246708142       35.0453647561
  H         4.4352673841        2.7771828274       17.7282183403
  H         5.5205526975        1.4110520321       17.3854026718
  C         3.5038869504        0.8032890984       17.4432724436
  H        13.3652257284        2.7809276061       22.0640921564
  H        14.1464443653        2.2524002476       20.6012501064
  C        14.7861517469        1.2493446041       22.3308339609
  S         9.4374420326        9.8475862564       17.2494700457
  N         9.9963802114        9.4443834992       15.7672829740
  C        10.3930087512        7.3414928923       14.5545616955
  H        10.6595886020        5.3165597392       13.8230288448
  C         4.0699707278        0.7709804510       36.0638884340
  N         4.2122332270       -0.5557090951       36.2264421069
  O         4.6853324298       -2.3302205304       34.8356327188
  H         3.2394109531        1.2741172516       16.4707079768
  H         2.6253297441        1.0033291615       18.0508045692
  C         3.9262659121       -0.6521709392       17.2619459498
  H        14.2681353583        0.4861413087       22.9923815154
  H        15.5691679553        0.8111879452       21.5898788605
  C        15.4096177876        2.2840361935       23.3384503320
  C        10.6784002746        8.0682585471       13.3999487518
  S         3.5506833305        1.6926220561       37.4884304422
  C         4.0174440852       -1.3607066415       37.4365651383
  H         3.8303065850       -0.9074230599       16.1835929309
  H         4.9995989169       -0.8440965978       17.4818040331
  C         3.1129696628       -1.5118578898       18.2163956516
  H        14.7786262240        2.4668205879       24.1614680252
  H        15.4354834425        3.2750584388       22.8959373013
  C        16.7014693734        1.7889389105       23.8784287079
  H        10.5502809871        9.1151040906       13.4923675294
  C        11.1240139257        7.7941295249       12.1042013452
  H         3.3926258987       -1.0057776357       38.2127812802
  H         3.5544931594       -2.3754516673       37.2299778848
  C         5.4255906560       -1.3092139709       38.1493051484
  H         2.4924975127       -0.9942468554       18.9646261330
  H         3.9063686724       -2.1445006918       18.6151826679
  C         2.2422618682       -2.3923837104       17.2744913641
  H        16.8477549075        2.3894060272       24.8017538036
  H        16.4260508321        0.7934250659       24.1079774777
  C        17.8197340520        1.8113471324       22.9174383465
  S        11.5177331632        6.2877907728       11.5752228796
  C        11.2269693036        8.9402251500       11.1717720841
  H         5.9960500410       -0.4385456926       38.4571292428
  H         5.3699094935       -1.9365387398       39.0199578468
  H         6.1276646204       -1.8216417190       37.5266919154
  H         2.9270766593       -3.0517806259       16.7338695732
  H         1.6530726549       -1.9080547969       16.4886666661
  H         1.4262809463       -2.8293236325       17.8436008450
  H        17.4941857704        2.0479418846       21.9246331608
  H        18.2990022790        0.7729583217       22.9799973657
  H        18.5066548541        2.5521961114       23.2213885525
  C        12.0052378322        7.1666569884       10.0943487729
  N        11.7571212180        8.4731962108       10.0611888940
  O        10.8227367128       10.0346082096       11.4623654585
  S        12.7752065076        6.3506169650        8.7006305035
  C        11.8845211680        9.3087959763        8.9110455389
  H        11.9331259218       10.4108744768        9.1540501981
  H        12.8649773090        9.1596275023        8.3594301970
  C        10.6933065237        9.0827616386        7.9338891067
  H        10.7313247322        9.9552286980        7.2725755884
  H        11.0221195982        8.2186889162        7.4481805396
  H         9.6966787244        8.9726749218        8.3772242654
  H        -3.6849066754       14.5091710425       16.1211259605
  C        -3.2804965574       13.5267338294       16.0893975479
  H        -4.0248717293       12.8652518545       16.4014566487
  C        -2.2380882602       13.4847722955       17.1194881655
  C        -2.8330650887       13.1907125491       14.6453631506
  C        -2.7044251989       13.6880486813       18.5186204026
  H        -1.6688377319       12.5817434484       17.0965788496
  H        -1.5318072779       14.3227154656       16.9307355459
  H        -2.2537880179       12.2661593565       14.7133793331
  H        -3.6735285655       13.0180592560       13.9817423347
  H        -2.2138221735       13.9632529868       14.2469254358
  C        -1.6505018526       13.4218898096       19.6092784086
  H        -3.5388992421       13.0708374999       18.8041940843
  H        -3.2262884190       14.6726222333       18.5794767012
  C        -2.1389135107       13.6518370738       21.0477793973
  H        -1.2410407059       12.4326477374       19.4953919620
  H        -0.8040237884       14.0843001139       19.4473811619
  C        -1.2010966982       13.0986380955       22.1188043087
  H        -3.1208589941       13.2977890068       21.0457764772
  H        -2.1416275509       14.7027234258       21.0577258313
  C        -0.1027808832       14.0284214574       22.5487318466
  H        -1.9022158353       12.8061586783       22.9357361669
  H        -0.8390601059       12.1694911845       21.6122873890
  C         1.0778572788       13.2657910872       23.1512234514
  H         0.2454693309       14.5887643401       21.7190836150
  H        -0.4106483751       14.8773193954       23.0407445765
  C         1.4213874724       11.9495605434       22.5121488102
  C         0.7000160967       12.4370065792       24.3715586939
  C         2.3652565798       14.1379127930       23.1722390767
  C         1.0873220341       10.8084111168       23.2460857733
  C         1.8962922054       11.6194771087       21.2088599898
  C         0.6434361363       11.0980030321       24.4929937733
  C         0.2264462912       13.1410435217       25.5419743774
  H         2.5982564937       14.5605048430       22.2227185389
  H         2.1214285388       15.0111777815       23.8138006908
  C         3.6320648432       13.4317200039       23.7532346530
  S         1.6505574839        9.3956177786       22.4733525338
  C         2.1470187895       10.2627293577       21.0720715835
  H         2.1060281755       12.3845581003       20.5139085473
  C         0.4422758500       10.5433238840       25.7156975494
  H         0.2273445955       14.2264977574       25.6014431058
  C        -0.0965529458       12.4775901538       26.7016076742
  H         3.9879096895       12.6572009706       23.0746499277
  H         3.4058731427       13.0705129626       24.7357784428
  C         4.8709526788       14.3665408754       23.8449272300
  C         2.6730091771        9.5447755901       19.8066526354
  C         0.0481213073       11.1329801128       26.8283655131
  H         0.6010797880        9.4900219466       25.9358245310
  C        -0.4558166021       12.8588750706       27.9635539076
  H         5.6147686899       13.9709500681       24.4790629945
  H         4.7650978928       15.3739459593       24.2430673411
  C         5.5663867050       14.4310436023       22.5211484921
  C         2.5957402234        8.1405244797       19.6332954320
  C         3.1349560991       10.3598040443       18.6959554082
  C        -0.1554118728       10.3714937004       28.0874540725
  C        -0.4891047507       11.7419698820       28.7765456397
  S        -1.0265269879       14.3311383451       28.7593300100
  H         6.3873938082       15.0608298715       22.6846164794
  H         5.0427715575       14.8759697728       21.6209943440
  C         6.1935646208       13.0012187100       22.1262582305
  N         2.0832216884        7.1655747139       20.5393021245
  C         2.8341250469        7.5582185483       18.3944301729
  C         3.4259379947        9.7546627975       17.4881604397
  H         3.1154281695       11.3700703687       18.8039664155
  C         0.9638147557        9.5416391501       28.7189271198
  C        -1.5065259566        9.5173111696       27.9896395956
  C        -0.8861979724       12.1084274926       30.0541269292
  C        -1.1099940759       13.4431053133       30.1912968930
  H         6.5543765556       12.5417486128       22.9706451106
  H         5.4542916145       12.4085695887       21.5584671995
  C         7.3312904492       13.1241764003       21.1065112513
  S         1.9752788183        5.6896169181       19.7813281103
  N         2.6181443987        6.1890706455       18.3040803141
  C         3.3052427342        8.2910131811       17.2969553517
  H         3.7285258017       10.3582960936       16.6860384330
  H         1.2448344175        8.7341297430       28.0753160549
  H         0.5955315071        9.1020553990       29.6104102431
  C         2.2957431308       10.2190833015       29.0410053732
  H        -1.2119799755        8.7053341963       27.3497283629
  H        -1.7216620127        9.2307164672       28.9730733998
  C        -2.6786439063       10.0645468610       27.2170430375
  H        -1.0134302882       11.4020928871       30.8178014850
  C        -1.6330008904       14.2014601429       31.4320852513
  H         8.0692340224       12.3118323045       21.2635522090
  H         7.8673811924       14.0657395175       21.2170920634
  C         6.7891257299       13.0102525428       19.7065781463
  C         3.2549407868        7.6243273486       16.0390257263
  H         2.7963912908       10.7008871335       28.2251449505
  H         2.1874464091       11.0661638753       29.7193956805
  C         3.1188492566        9.3449209857       29.9193991466
  H        -2.4284359698       10.0279794523       26.1235762195
  H        -2.8655605839       11.0829741803       27.5906833970
  C        -3.9154847966        9.1741588654       27.3571016262
  C        -1.6955700787       15.5937639206       31.6792922828
  C        -1.9461349190       13.2944319719       32.5750900242
  H         6.3580836654       12.0332184346       19.5768381102
  H         5.9289320347       13.6304865583       19.5348502474
  C         7.7433454721       13.1794186716       18.5461472830
  H         3.2677821103        6.5790747345       16.0174853808
  C         3.5704264061        8.0723494585       14.7619321018
  H         3.1779976431        8.3070560486       29.5120960076
  H         2.7790670238        9.3388904161       30.8889000838
  C         4.5411836427        9.8423557793       29.9376743131
  H        -3.9034164155        8.4869148354       26.5098488851
  H        -3.7182369887        8.7539390561       28.3131239620
  C        -5.3081188737        9.8737513655       27.3782332275
  N        -1.4900323831       16.5999149048       30.7166868101
  C        -1.9944676194       16.1248546719       32.9286034634
  C        -2.3405993909       13.8320488529       33.8059329634
  H        -1.8603698361       12.1769946031       32.5681209004
  H         7.3096354724       13.8968684828       17.9608427314
  H         8.6891775266       13.4695808821       19.0094359926
  H         7.8998724390       12.1862719823       17.9913593714
  S         3.8924152175        9.7288337333       14.2268047984
  C         3.4416663487        7.0608635698       13.7039581766
  H         4.9368632097        9.9202699404       28.8776945035
  H         4.5121973183       10.8649753174       30.2662842635
  C         5.5546540561        8.8170041236       30.5738975011
  H        -5.0638086441       10.8149610731       27.8928029766
  H        -5.9031744904        9.3288182599       28.1031204439
  C        -5.8475660769       10.1214269248       25.9797363165
  S        -1.5679241475       18.0329418072       31.3765287415
  N        -2.0788116927       17.5320327273       32.8925497073
  C        -2.2220967032       15.2769220686       34.0830382074
  H        -2.5291005904       13.0919929962       34.4987921994
  C         4.0444261703        8.9550111842       12.6153157075
  N         3.9724006023        7.6216473439       12.5747624755
  O         3.0566228728        5.9383440891       13.8860447456
  H         5.1982828619        8.4936958333       31.5342276946
  H         6.5339043674        9.3750078495       30.7907505122
  C         5.8002656378        7.5368543616       29.7469205596
  H        -5.1708369917       10.9446465757       25.7079276141
  H        -5.6439203474        9.2855016486       25.3101307123
  C        -7.2490205267       10.6841414900       25.8161088833
  C        -2.6130129427       15.8633100320       35.3085562170
  S         4.4551960211        9.8091137906       11.1172891568
  C         4.0106544700        6.8238821001       11.4231497374
  H         5.4214391035        7.6726458021       28.7592853545
  H         6.8236132957        7.4213375153       29.4733247108
  C         5.3058055917        6.3112228359       30.4507871712
  H        -7.5826186411       10.3897425975       24.7821306393
  H        -7.4176319979       11.7981678490       25.7759673735
  C        -8.3216623416        9.9987941355       26.6271842580
  H        -2.4777137804       16.8989498930       35.1998194650
  C        -3.0119967741       15.4001721681       36.5495810727
  H         4.9539889834        7.0547386864       10.9139957073
  H         4.1668023157        5.8111669996       11.6834411638
  C         2.8216514176        6.9012435627       10.5218327118
  H         5.1480188357        5.4537617284       29.7557005748
  H         4.2507365147        6.5783692262       30.6269482302
  C         5.9833828220        5.8104745471       31.6820745702
  H        -8.1959590314        8.9174731245       26.3651811800
  H        -8.1885406871       10.1587849248       27.6964379407
  C        -9.7042713135       10.4072185128       26.2450542444
  S        -3.2405509295       13.7873220243       37.0629421879
  C        -3.2492570169       16.3934240902       37.5993608208
  H         2.9965696271        6.1772100366        9.7244204692
  H         1.8384213201        6.7005148843       10.9311843980
  H         2.6155689590        7.8266859149       10.0389709450
  H         5.7399485317        4.7720600093       31.7796405654
  H         5.7865517766        6.3194084216       32.6691340310
  H         7.0959779592        5.9184319435       31.6013482120
  H        -9.6904885903       11.5156715721       26.2003729127
  H       -10.3809345431       10.1646236537       26.9977553334
  H       -10.0618605790        9.8604605683       25.3640588733
  C        -3.8152299064       14.4301262896       38.6241324932
  N        -3.7140653336       15.7945949918       38.7033375664
  O        -3.1944994609       17.6120060990       37.4335821276
  S        -4.5659963242       13.3876798260       39.8480889530
  C        -3.9203943474       16.5802215004       39.9070027590
  H        -4.2374969568       17.5617668339       39.7484147272
  H        -4.6138384651       15.9806193450       40.4610644311
  C        -2.6711675581       16.5803988409       40.6894714549
  H        -2.3990981634       15.6258381345       41.0354082743
  H        -1.8173627275       17.1244135296       40.2267581958
  H        -2.8423863694       17.1475421382       41.5856590815
