352
 i =    31000, time =    31000.000, E =        25.3359871067
  H        12.3991069715        5.2009283009       32.5322086369
  C        11.3122364470        5.5138820468       32.3949499801
  H        10.6865110577        4.7183387189       32.0908447979
  C        11.3035376771        6.5927148473       31.3795069355
  C        11.0514642946        5.9536174553       33.8484480550
  C        11.5188635501        6.0561100671       29.9377648704
  H        10.3760741500        7.1640753231       31.4769414759
  H        12.1820466461        7.1926249848       31.5956786136
  H         9.9713207663        6.1541917243       33.8785442843
  H        11.2110176926        5.1913818659       34.5741950284
  H        11.7465183005        6.7674285211       34.0980207410
  C        10.3230024324        6.2775829983       28.9716546431
  H        11.6206513617        4.9347234683       30.1198527654
  H        12.4500561686        6.4257482250       29.4828590444
  C        10.6958549044        5.9215963273       27.5469381216
  H         9.5050043446        5.5625149489       29.2890074622
  H         9.8759942487        7.2416516544       29.0481344210
  C         9.5751356248        5.3126103358       26.6902925544
  H        11.5328441889        5.2035944019       27.5589793938
  H        11.0134364997        6.8580743181       27.0463629517
  C         8.4237703465        6.2377721142       26.2664683016
  H         9.9997747716        5.1608662498       25.6375840740
  H         9.2897547144        4.3434321262       27.0066609573
  C         7.3175218536        5.5090813878       25.4434820359
  H         8.0114968358        6.8134724097       27.1189233441
  H         8.9527912758        6.9549749946       25.6159906019
  C         6.9165448709        4.1685026024       26.1759211726
  C         7.8150785082        4.7032568269       24.2721444203
  C         6.1277632510        6.4057428354       25.0691855098
  C         7.2671637161        3.0147749188       25.4292606697
  C         6.3762205408        3.8854049310       27.4265325350
  C         7.7670755970        3.3542160609       24.1923071982
  C         8.3807921107        5.3511391079       23.2114810768
  H         6.3621240785        7.2157109215       24.2908221417
  H         5.9229042053        6.9426785365       25.9933291504
  C         4.7615662916        5.7513540353       24.7128192769
  S         6.8181282677        1.5988077309       26.2109166073
  C         6.2414037418        2.5341255150       27.5926352903
  H         6.1470273340        4.7146500142       28.1270482002
  C         8.2141219314        2.6926089830       23.0795346348
  H         8.4845206819        6.4031088182       23.2588077537
  C         8.5643108637        4.7323027208       22.0079632612
  H         4.8655782861        5.3722206477       23.7074343266
  H         4.5942812556        4.8497800322       25.3834020866
  C         3.5385689420        6.7012936279       24.5474338722
  C         5.8047013914        1.7964089289       28.8287938514
  C         8.5878262079        3.3317588970       21.9024606134
  H         8.1803242294        1.6591104286       23.1037227131
  C         8.9397043141        5.0637127908       20.6374926421
  H         2.8284720847        6.1587819775       23.8770755924
  H         3.7809893891        7.7330077163       24.1583311353
  C         2.7687225741        6.8909189363       25.8711600185
  C         5.8597515365        0.4222944673       29.1195937602
  C         5.3617013395        2.6060888951       30.0037493725
  C         8.9307212921        2.6154846829       20.6247658571
  C         9.1643171663        3.9302035297       19.8690243725
  S         9.1833572568        6.5741343177       19.9296287180
  H         2.0395355270        7.7807950442       25.9071178257
  H         3.6201963164        7.1574279560       26.5230066579
  C         2.0698810785        5.7062256362       26.5076185623
  N         6.2357958094       -0.5457859917       28.1796890612
  C         5.6066416033       -0.1425221005       30.3751772771
  C         5.0453360189        2.0233297597       31.2377459454
  H         5.2095929438        3.6328935126       29.8667652397
  C         7.7094078042        1.8214397810       19.9423658174
  C        10.1512022743        1.7173910417       20.6771875006
  C         9.5144443994        4.2694160694       18.5554364242
  C         9.5790059459        5.6821873153       18.4475024398
  H         1.1829776285        5.5622520499       25.9847500499
  H         2.6088031797        4.7679126740       26.2833230104
  C         1.7639102881        5.8149346918       27.9525760459
  S         6.2636290325       -1.9742739531       28.8876757942
  N         5.7182737447       -1.5337004073       30.3137767922
  C         5.1801493858        0.6125763449       31.4741080731
  H         4.7983370614        2.6808610677       32.0521365714
  H         7.4189798597        1.1192130782       20.7066338060
  H         8.0807268624        1.3137310721       19.0581735499
  C         6.5490635745        2.7254654276       19.5918794198
  H        10.2031306043        1.2978993660       19.6356105203
  H        10.1015097546        0.8847002373       21.3384377952
  C        11.4828992038        2.4074261777       20.9358537601
  H         9.7262482600        3.5157070083       17.8453976443
  C        10.0814812123        6.3808601590       17.1870403002
  H         0.9813826532        5.0743643487       28.1556995646
  H         1.4169258299        6.8065213949       28.1595968398
  C         2.8658404620        5.4419632128       28.8497058957
  C         4.9346959719       -0.0923791674       32.7131260554
  H         6.8467364966        3.4390090530       18.8577857138
  H         6.3501146958        3.1936325912       20.4964298904
  C         5.3145066774        1.9386087207       19.1482609500
  H        11.3914365693        2.9759889123       21.8491767296
  H        11.6906594322        3.2743318010       20.3093289933
  C        12.7234770265        1.4561663165       20.9765860615
  C        10.0460994455        7.7640261831       16.8769128459
  C        10.4415218069        5.5202757260       15.9872644310
  H         3.0432976023        4.3669365738       28.6616684793
  H         3.7839655134        5.9696221315       28.4950924239
  C         2.5205263998        5.6605537176       30.3364210349
  H         4.8639235394       -1.1624146253       32.6420858236
  C         4.6501580034        0.3193945669       33.9946220917
  H         4.9748603982        1.1064604714       19.7877381128
  H         5.5441819852        1.3275460763       18.3006223880
  C         4.2318887633        2.8275876645       18.6222035618
  H        12.6477837202        0.8758481102       21.8952756076
  H        12.6676779319        0.7607093288       20.1436737100
  C        14.0329836943        2.2658086418       20.9147084610
  N         9.6667746677        8.7065681836       17.8589333308
  C        10.4953692764        8.3168511850       15.6948325154
  C        10.6827860724        6.0903600303       14.7185841455
  H        10.4440273596        4.4613730538       16.0630248523
  H         2.7102421753        6.6593085892       30.6154533982
  H         1.4655074975        5.3503142073       30.6447328183
  H         3.0860044954        4.9009744109       30.8194613606
  S         4.4923386463        1.9597877128       34.4021050262
  C         4.6260826722       -0.6964613603       35.0773958965
  H         4.1498698213        3.5877476475       19.4254535563
  H         4.6574839489        3.4029535312       17.7979983914
  C         2.9395393145        2.0315079744       18.2217608638
  H        14.0868754426        2.8487627641       19.9408107644
  H        14.8690410863        1.5699676951       20.7336010105
  C        14.3383940044        3.1628015299       22.1580501365
  S         9.8222232285       10.1933730615       17.1514083925
  N        10.4998026310        9.7612489046       15.7478192779
  C        10.8959060847        7.5298537771       14.5559362883
  H        10.8860276370        5.4588708969       13.9160107856
  C         4.3647872350        1.2991977529       36.0915444299
  N         4.4473065295       -0.0547353826       36.2372982980
  O         4.7429704592       -1.9095866574       34.8321890774
  H         2.0912296837        2.6638412751       17.8797510321
  H         2.6826737169        1.6339400852       19.1226834326
  C         3.1234171493        0.9474913436       17.1974285652
  H        15.0894085349        3.9353126870       21.9076717494
  H        13.5259630072        3.7676586370       22.5171015914
  C        14.8336238069        2.2987595708       23.3434430164
  C        11.2683221544        8.2113613255       13.3563434739
  S         3.9998170144        2.2120671545       37.5266022824
  C         4.5238170266       -0.7707028925       37.4918957323
  H         2.5135061046        1.0977986781       16.3166937453
  H         4.1213455470        1.0338317918       16.8741985989
  C         2.9805605187       -0.3985617420       17.7086339145
  H        14.8839267798        1.2355989303       22.9984146369
  H        14.0412650574        2.2380357559       24.0877007856
  C        16.1209363822        2.7564943102       23.9939521384
  H        11.3235976618        9.2594784991       13.4432036565
  C        11.7618903237        7.7194479303       12.1622391892
  H         3.9531621907       -0.2300494552       38.2198960194
  H         4.0502363871       -1.7566661230       37.4811934940
  C         5.9215389588       -0.8581295767       37.9758410002
  H         3.5546165091       -0.5929992325       18.5977409210
  H         3.4478290920       -1.1702961617       17.0274651799
  C         1.5886275040       -0.8067340571       17.9537477163
  H        16.0868085296        3.8220364823       24.2455420527
  H        16.2611587074        2.1803612274       24.9308410677
  C        17.4046962736        2.5360615255       23.2650196401
  S        12.1411451836        6.1015677552       11.7199926919
  C        12.2016025189        8.6477192287       11.0630314938
  H         6.5642272744       -1.1546324938       37.0920018259
  H         6.3331370666        0.0859868591       38.4322884655
  H         6.0466093036       -1.7664945777       38.5901865074
  H         0.9565390670        0.0758721250       18.0283463619
  H         1.6365406581       -1.3934669450       18.9049198005
  H         1.2752605437       -1.4767988857       17.1210692018
  H        17.4939036711        3.2101720070       22.4016547438
  H        17.6482091125        1.5464233097       22.9025847129
  H        18.2350077389        2.9565196468       23.7695447063
  C        12.4835597760        6.7547097967       10.0565563746
  N        12.5968814802        8.0360398980        9.9653076498
  O        11.9587655037        9.8742512329       11.1888454236
  S        13.0648999036        5.8128639015        8.6816250074
  C        12.8775020885        8.7223362305        8.7038011092
  H        13.3494641922        9.6823538321        9.0315974053
  H        13.5866182322        8.2365145336        8.0414369489
  C        11.5210178811        8.8353508311        7.9692911279
  H        11.3357778365        9.8946778817        7.8632438106
  H        11.4145502294        8.3651049747        6.9726231867
  H        10.6909852190        8.5412354370        8.5064065022
  H        -2.7996511797       15.2932842233       16.5642363355
  C        -3.3452734497       14.3663713866       16.5763924322
  H        -4.4377283902       14.5520173603       16.7435485732
  C        -2.9042091469       13.3960392820       17.6736808152
  C        -3.2203387493       13.6609009216       15.2052270514
  C        -2.7868192438       14.0668784433       19.0369938137
  H        -3.5492232643       12.4730578100       17.6170064403
  H        -1.9790451250       12.9759853336       17.4085613349
  H        -2.2529899453       13.2982142925       14.9147916999
  H        -3.7660917629       12.7844669283       15.3863396413
  H        -3.7443411180       14.1141846444       14.3760466912
  C        -2.3079711955       13.0104685084       20.0538434858
  H        -3.7378355045       14.5130623441       19.4068408938
  H        -2.1158417952       14.9806429013       18.9763507396
  C        -2.5271303044       13.4744885253       21.4889239461
  H        -2.9579717131       12.1199431437       19.9646709632
  H        -1.2802494994       12.7170463548       19.8540316055
  C        -1.4441152832       12.9968576423       22.4033784099
  H        -3.4857876132       13.0006363512       21.7725507967
  H        -2.5572892060       14.5552255134       21.6920479339
  C        -0.2058031979       13.9298451638       22.4477458095
  H        -1.9015491240       12.9904650497       23.3865580700
  H        -1.2307419858       11.9373914706       22.0784879991
  C         1.0074893706       13.2532633241       23.2021606538
  H         0.1218926170       14.0920542390       21.4370701900
  H        -0.5359825900       14.8112485767       23.0680443207
  C         1.2860872936       11.8774978325       22.6047932557
  C         0.6058616335       12.6916600391       24.5823703462
  C         2.3072609009       14.0832735754       23.0247324042
  C         1.1316847089       10.8637984912       23.5435172789
  C         1.7663841227       11.4493893745       21.4043572061
  C         0.6737541009       11.3597158683       24.7292198731
  C         0.2330697314       13.3787570686       25.6902460359
  H         2.4323919830       14.4661796471       21.9946890433
  H         2.1420855492       15.0278547127       23.6312270863
  C         3.4952146335       13.3757668926       23.5783210255
  S         1.5025947101        9.2971460773       22.8025245672
  C         2.0253432909       10.0656224183       21.3205998534
  H         2.0431826748       12.1493527129       20.5971925035
  C         0.4061859262       10.7833944331       25.9353885683
  H         0.2349525067       14.4589217604       25.4319744246
  C        -0.0689344993       12.8333840861       26.8889284330
  H         3.7391679962       12.5522085145       22.9030531059
  H         3.3506687128       12.9177464903       24.5617037279
  C         4.7524106790       14.1863919826       23.7561363800
  C         2.4883635560        9.3198597047       20.0720005222
  C        -0.0275932759       11.5162565854       26.9927727404
  H         0.4217525177        9.7468912892       25.9780809618
  C        -0.4507156991       13.1988291868       28.1486921317
  H         5.4687319045       13.7693089367       24.4348202200
  H         4.4201404102       15.0983634406       24.2336400341
  C         5.5771986150       14.6300053825       22.5037611013
  C         2.4855965535        7.9230772798       19.8096638557
  C         2.7367989004       10.2066228691       18.8794875457
  C        -0.3629054246       10.7570324709       28.2520131174
  C        -0.6970730053       12.0772341156       28.9174616391
  S        -0.8931260489       14.6152015603       28.9381514975
  H         6.3916283580       15.2080930946       22.7852354883
  H         5.0430237195       15.3571861099       21.9538320985
  C         5.8072133430       13.4799095324       21.5282976460
  N         2.0632606572        7.0185695915       20.8048964215
  C         2.7424746209        7.3765551357       18.5921513223
  C         3.3218281084        9.6229561709       17.7402041466
  H         2.8731148525       11.2518836566       19.0761379892
  C         0.8710050775        9.9643694660       28.8346953873
  C        -1.6250627736        9.8026141336       28.0631149555
  C        -1.1474812913       12.4871412302       30.2434413949
  C        -1.2567725439       13.8531997525       30.4063616139
  H         6.1691416615       12.5171159062       22.0495334875
  H         4.8994605407       13.2525236146       21.0091414333
  C         6.9709451532       13.8241863746       20.5707380416
  S         2.0982644968        5.5189303401       20.1648826025
  N         2.5370807412        5.9911870995       18.6417258915
  C         3.1464647796        8.1794816731       17.5221072121
  H         3.6317301700       10.3143244808       16.9326056694
  H         0.9392529174        9.0614223314       28.1990617192
  H         0.4520375239        9.6896554596       29.8528497913
  C         2.2396409124       10.6473854271       28.9795815897
  H        -1.3569155608        8.9395092281       27.4898357851
  H        -1.7234535728        9.4936466383       29.0747650019
  C        -2.9324646591       10.4719085969       27.5301976946
  H        -1.2079083969       11.7842753300       31.0347659724
  C        -1.6084204984       14.5533236014       31.6466876619
  H         7.5799147599       12.9173346799       20.4034346476
  H         7.6400163486       14.5398998935       21.0399225328
  C         6.3949599771       14.2828842679       19.2140117856
  C         3.3775756581        7.5056008217       16.2956931055
  H         2.5925280042       10.7771070936       27.9556255629
  H         2.1831689271       11.6193237580       29.5221354461
  C         3.2580689931        9.7961997243       29.7627816954
  H        -2.6397645324       10.8426505911       26.5383709732
  H        -3.1970952542       11.3246602185       28.1600203343
  C        -4.0451136106        9.4833368580       27.5945902309
  C        -1.5312323130       15.9360558263       31.8189998929
  C        -2.0217926027       13.8107503538       32.7997904143
  H         5.3881339121       14.6791206414       19.4158411241
  H         6.9022381785       15.0688631899       18.6365692523
  C         6.3449933892       13.2212709695       18.1757894295
  H         3.2322443329        6.5139424272       16.3186797046
  C         3.6707600441        8.0306650681       15.0623678133
  H         3.1880451286        8.7357031246       29.4135067873
  H         2.8105470496        9.8663559321       30.7727056620
  C         4.6316957783       10.4402867517       29.6728552228
  H        -3.9516462723        8.7307751279       26.7904672540
  H        -3.9738943927        9.0222968589       28.5291236659
  C        -5.3872603960       10.1524941174       27.4146433451
  N        -1.0450958063       16.8467943864       30.9057771874
  C        -1.9277040261       16.5618614000       33.0149740493
  C        -2.3461617085       14.3756148148       34.0303748964
  H        -2.0517816108       12.7592004426       32.6269343427
  H         7.3819113230       12.8061665831       18.1304453096
  H         5.7510595647       12.3527033483       18.4981669910
  H         6.0024414942       13.5644472584       17.2505706276
  S         4.0543057694        9.5897689363       14.5489548575
  C         3.6900987609        7.0694071437       13.9530901702
  H         4.6686955214       11.0056047189       28.6729437636
  H         4.8702087436       11.1689424899       30.5123463236
  C         5.5620367804        9.2668238363       29.6800150621
  H        -5.4568261194       10.9485567551       28.1689480817
  H        -6.2132500263        9.4213699046       27.6563040605
  C        -5.5042684052       10.7544138053       26.0263773087
  S        -1.1286775716       18.3329984459       31.5476256653
  N        -1.8781517536       18.0016515605       32.9015800564
  C        -2.2467619624       15.8406881908       34.1356796000
  H        -2.6657203177       13.8775857969       34.8923355326
  C         4.1480053668        8.9822926178       12.8639803077
  N         4.0692948016        7.6448110708       12.8569243769
  O         3.4478496220        5.8956416402       14.1685276977
  H         6.6797797254        9.5049363407       29.6375408524
  H         5.3385383762        8.6828555712       28.7694499321
  C         5.4938002462        8.2880327723       30.9235859532
  H        -4.7572366473       11.4729635130       25.7797826382
  H        -5.3555763719        9.9246646831       25.3326775196
  C        -6.7735465001       11.4165970408       25.5149930185
  C        -2.6079965291       16.5284279284       35.3268946012
  S         4.7518782301        9.7162684789       11.4580890145
  C         4.2687088025        6.7698750599       11.6626878686
  H         5.8549033821        8.7703470469       31.7855615531
  H         4.5674923749        7.8611857642       31.1415505754
  C         6.4780987425        7.0841707422       30.7566875009
  H        -6.5166472763       11.5713599760       24.5119289661
  H        -6.9924948722       12.4234125089       25.9122906329
  C        -8.0770093985       10.5817953581       25.5279006475
  H        -2.2437892190       17.5747081624       35.3620403289
  C        -3.1608551334       16.1876299516       36.5383332528
  H         5.1006739444        7.1705940029       11.0863097099
  H         4.6359054989        5.7678851244       11.9589250240
  C         2.9914497816        6.5967096173       10.9082030646
  H         7.3625176080        7.2949708486       30.2057243198
  H         6.0667008062        6.3947236306       29.9927233112
  C         6.9382582364        6.5182913882       32.0835087360
  H        -8.5739783706       10.8327202596       24.5498176734
  H        -7.8124292496        9.5501800679       25.5411740955
  C        -9.0056481347       10.7336527080       26.7071112502
  S        -4.0596058403       14.7139483969       36.9508436249
  C        -3.0331417440       17.1472643584       37.6687806064
  H         3.1329601169        7.0157708337        9.8953940197
  H         2.8363263343        5.5291163217       10.6673462142
  H         2.0679716275        6.8971045636       11.4498572530
  H         6.2129394803        6.6005013490       32.8901653978
  H         7.9169211175        6.8650372887       32.5175045317
  H         7.0527794651        5.4349674209       32.1435927312
  H        -9.6496151772        9.9414905349       26.7882400235
  H        -9.5790831470       11.6208032591       26.6914245633
  H        -8.3919941890       10.8429576951       27.5986319350
  C        -4.1115029390       15.3551881261       38.6475439438
  N        -3.6562129378       16.6246418913       38.7737724539
  O        -2.6920273796       18.2986999266       37.4678592963
  S        -4.8269041874       14.5362978651       40.0205646743
  C        -3.6139035648       17.2652727927       40.0384113185
  H        -3.4092738977       18.3124289191       39.9261761881
  H        -4.5915313582       17.2756994752       40.5745512568
  C        -2.5431913044       16.6120093740       40.9663638541
  H        -2.0590570562       17.4905454595       41.4092101577
  H        -2.9758315292       15.9548437512       41.6953798249
  H        -1.8083147577       16.0052108263       40.3939835587
