352
 i =    46400, time =    46400.000, E =        24.7581309078
  H        10.8983124057        7.7917052312       33.2465932949
  C        11.2823575762        6.9859598733       32.6873326980
  H        12.1902946877        7.4355175275       32.2633089961
  C        10.2290447699        6.6105387778       31.6446485628
  C        11.6776188100        5.6920083385       33.5738829880
  C        10.9876186989        6.4046808224       30.3001994470
  H         9.5882728629        5.7724026335       31.9576018042
  H         9.5598756180        7.4244844338       31.5729902654
  H        11.3133910771        5.7851197398       34.5974605696
  H        11.3465538038        4.7678860687       33.1029265010
  H        12.7589381558        5.6431547296       33.6318765296
  C        10.0930830989        6.1825754555       29.0623037150
  H        11.6643288788        5.5991549759       30.3553986781
  H        11.5354517818        7.2695769025       30.1148957689
  C        10.7544103019        5.6063831775       27.8246130509
  H         9.3783036283        5.4764306495       29.3983036936
  H         9.4855053766        7.0312991956       28.8242845948
  C         9.6082973058        5.0471285503       26.9087660473
  H        11.5422122767        4.7850724528       28.0679981318
  H        11.2850531940        6.5241296195       27.3804878928
  C         8.4317560930        5.9827926417       26.6277403776
  H        10.0279030907        4.6209649081       26.0722457313
  H         9.3133318354        4.1255922812       27.4526255123
  C         7.2432196784        5.3803044046       25.8014631856
  H         7.8259222889        6.2057969638       27.4917928888
  H         8.8419849993        6.8288919938       26.1202858447
  C         6.8064711267        4.0469147390       26.3611233832
  C         7.6832674333        4.6684572027       24.4722902740
  C         5.9856153364        6.3192496815       25.6809602896
  C         7.0283240635        2.9562061305       25.5673954300
  C         6.2657294320        3.7063205345       27.6238566588
  C         7.5950734581        3.3296482720       24.3839273034
  C         8.1535294020        5.3750642612       23.3468095709
  H         6.2535584523        7.2026315361       25.1079027116
  H         5.7076414420        6.7472679062       26.6197823912
  C         4.8094741884        5.7636009118       24.7819734622
  S         6.4972407689        1.4459310942       26.2772708065
  C         6.0564760359        2.3951919389       27.7207362009
  H         6.0520138390        4.4747824375       28.3371206695
  C         7.9385752315        2.8137631883       23.2470407340
  H         8.1775689512        6.4919911918       23.4296767006
  C         8.5640285048        4.7758205852       22.2432994896
  H         5.1706013545        5.6379457000       23.8007502638
  H         4.5617367158        4.7475596272       25.1260735138
  C         3.4848458516        6.6387263881       24.6847063751
  C         5.6927533784        1.7270350940       28.9323523150
  C         8.5319054564        3.4641819107       22.1524348995
  H         7.8515867218        1.7288465794       23.1653527994
  C         8.9744501799        5.1107442325       20.9823203656
  H         2.7739904727        6.2128616950       24.0254693428
  H         3.8291312469        7.6274473125       24.3366303428
  C         2.9136254036        6.8636042773       26.0852955010
  C         5.8872997466        0.3209298566       29.2343895898
  C         5.2704589633        2.5876950014       30.0801037950
  C         9.0390028707        2.7400263483       21.0247301124
  C         9.2056792695        4.0011140704       20.1769324345
  S         9.2657891699        6.5611714628       20.1170458129
  H         2.1802756922        7.7065489915       26.0495399323
  H         3.6644786162        7.0749443980       26.7573922347
  C         2.2642649598        5.5511349698       26.6808454877
  N         6.2421362001       -0.6491748776       28.2936149516
  C         5.5942572252       -0.2300057769       30.4851648395
  C         5.0263423158        1.9535755800       31.3270569780
  H         5.1249943639        3.6806498920       29.9264571256
  C         7.8712271341        1.8048427051       20.4363842277
  C        10.3573515128        2.0508323307       21.4018344862
  C         9.5503791079        4.3359444430       18.8627508588
  C         9.5653074284        5.6745930165       18.6551542057
  H         1.4509686026        5.1743365937       26.0013308818
  H         3.0113172065        4.7254380872       26.7866709650
  C         1.4528325628        5.7225113324       28.1111933689
  S         6.2042587138       -2.0627907900       28.9956372201
  N         5.8195613511       -1.6297813293       30.5255620198
  C         5.2503223674        0.5431217081       31.6594627900
  H         4.7856860092        2.5520705218       32.1598793650
  H         7.4071018278        1.1300220794       21.1341024078
  H         8.4141050173        1.1059624144       19.8330738645
  C         6.7334574353        2.5270191273       19.7493736971
  H        10.2557708361        1.2156879343       22.0537400748
  H        10.7946181010        2.8437008283       22.0289883143
  C        11.4107640013        1.6545626028       20.3131868895
  H         9.6325574743        3.4856115580       18.1450734983
  C         9.8804608965        6.3881999832       17.3177491779
  H         0.9523636905        4.7814164733       28.3488363707
  H         0.7805472714        6.5648747118       28.1231778689
  C         2.4491088087        5.9837888917       29.2359828075
  C         5.0354045117       -0.0936882375       32.8939400651
  H         6.8563322688        2.9986589319       18.8250446345
  H         6.3163366018        3.2203274293       20.4000001022
  C         5.6656010448        1.5687382418       19.3868903107
  H        11.7271640797        2.6441118990       19.8973093049
  H        11.0319598942        1.1186808760       19.4910003864
  C        12.5707349105        0.9519220105       21.0050324280
  C         9.9771539292        7.8136401555       17.1211774776
  C        10.1803064298        5.6511730814       16.0721802079
  H         3.2210551604        5.1808287550       29.2727709707
  H         3.0050263178        6.9211968217       29.0062832811
  C         1.7726474975        6.1788629308       30.6326731729
  H         5.2445493214       -1.1092144388       32.8165580756
  C         4.7477132514        0.3478068441       34.1801930711
  H         5.1997471353        1.2858327477       20.3358859209
  H         6.0818263564        0.7523013514       18.8307895317
  C         4.5863197354        2.3205807863       18.5705629811
  H        12.2700932765        0.5758496506       21.9663441286
  H        12.8623550227        0.1036723415       20.4113644690
  C        13.8882695253        1.7202189385       21.1225790845
  N         9.7140868999        8.7966807917       18.0989996762
  C        10.2081309108        8.4649477506       15.9098463645
  C        10.3184846114        6.2863905988       14.8047148332
  H        10.0533309966        4.5619179855       16.0920824858
  H         1.2457358028        5.2505362443       30.8630474214
  H         2.4666075657        6.3055507305       31.4090665444
  H         1.0536178214        6.9292658114       30.6557753102
  S         4.2217037367        1.9760334535       34.5960443974
  C         4.7568606414       -0.6231032461       35.3505840128
  H         4.2921187616        3.2540749660       19.1024917712
  H         4.8686062611        2.6390520723       17.5661509992
  C         3.3834207558        1.4423506180       18.3085939548
  H        13.9583071861        2.2288169743       20.1449930565
  H        14.6312785061        0.9506646036       21.1512004745
  C        14.0565594164        2.6891154939       22.2424232369
  S         9.7406741658       10.3116634405       17.3364035859
  N        10.1887719230        9.8545995893       15.8551799549
  C        10.4467325047        7.7779310773       14.7040791191
  H        10.2949566442        5.6495581612       13.9601105485
  C         4.1925803349        1.3239274637       36.3084827927
  N         4.4596673729       -0.0093660139       36.5237442575
  O         5.0730406522       -1.8194282755       35.2294095904
  H         2.4930310733        1.9822499890       18.0920309242
  H         3.1255576105        0.8970999820       19.1846253147
  C         3.5892658160        0.4817288516       17.2185353330
  H        14.5118107193        3.6018047736       21.9451700774
  H        13.1106047622        3.0190793554       22.6334895503
  C        15.1100912325        2.2781696608       23.2997729530
  C        10.5866102058        8.4443502863       13.4079614760
  S         3.5874810361        2.2160871168       37.7180207313
  C         4.5642480807       -0.7436537553       37.8140970218
  H         3.6712818969        1.1582792109       16.3115472278
  H         4.5592864601        0.0196803711       17.3996856405
  C         2.4623972767       -0.4554633627       17.0207532137
  H        15.5377805003        1.2734984209       23.0862757596
  H        14.5450583948        2.2288523819       24.1904857172
  C        16.2757755871        3.2896095986       23.5781188847
  H        10.4894512806        9.4783477428       13.4437878965
  C        10.9717119399        7.9930953851       12.1943060344
  H         4.0307273789       -0.2065002633       38.6173988076
  H         4.0630604027       -1.7471279879       37.8273192905
  C         6.0385168144       -0.9380939461       38.1052570522
  H         2.7348920793       -1.2684274778       16.4011803260
  H         1.7171139453       -0.0066887605       16.3736214795
  C         1.7986057231       -1.1420916196       18.2332814020
  H        15.9979087611        4.2889691206       23.2453693259
  H        16.4957481858        3.1954499364       24.6272342681
  C        17.5480829217        2.8390294412       22.8259486800
  S        11.5732757119        6.3822405288       11.8212610503
  C        11.2943240446        8.9991508823       11.1357170170
  H         6.6233254166       -0.0432512306       38.0101433089
  H         6.2572749104       -1.3181551616       39.1386050092
  H         6.3844236456       -1.6774657318       37.4667255143
  H         1.0076049021       -0.5688657621       18.6542958425
  H         2.4631637209       -1.3650277829       19.0342283991
  H         1.3425480285       -2.1232534788       17.9651042235
  H        17.6691399423        1.8036411699       22.6087131791
  H        18.4557980417        3.0072111017       23.3704116791
  H        17.6086485267        3.4281966450       21.9142804724
  C        12.1159735187        7.0505516150       10.3036326000
  N        11.9235048600        8.3844545588       10.1508629115
  O        11.0376007117       10.2206281739       11.3078476615
  S        13.1876725300        6.2305397181        9.1527871362
  C        12.2925720221        9.1888821644        9.0012140900
  H        12.5358196476       10.1658912550        9.5023177989
  H        13.1794625474        8.7292697036        8.5706280566
  C        11.1087310698        9.3851462828        8.0448770704
  H        10.3183682385        9.9420031157        8.5522913958
  H        11.4524344921        9.8357920560        7.1017027360
  H        10.5099881253        8.5287344790        7.8795044358
  H        -2.1663441248       12.7752310076       17.1760056483
  C        -2.1558479445       13.7564344102       16.7110517780
  H        -1.1444830740       13.8780372649       16.3799239234
  C        -2.5809851817       14.7118895473       17.7869328221
  C        -3.1305700869       13.7395189243       15.5745468031
  C        -3.0705374624       13.9948501614       18.9945784487
  H        -1.7160333995       15.3346912989       17.9656341293
  H        -3.3617714659       15.3278530266       17.3688795385
  H        -3.2744519053       14.6975453768       15.0738513845
  H        -2.8746034040       13.0136399781       14.8642081176
  H        -4.1252291256       13.4481297934       15.9608560073
  C        -2.1003368241       13.2996201467       19.9028578013
  H        -3.8381358280       13.3713864223       18.6473388503
  H        -3.6291105177       14.7624889604       19.5126630493
  C        -2.3324600227       13.4067489216       21.3418426482
  H        -2.0412948840       12.2455735433       19.6992316366
  H        -1.0968364584       13.8152893931       19.7157802559
  C        -1.3641874456       12.7764162121       22.3463892676
  H        -3.2436249689       12.8668179340       21.4616411355
  H        -2.6793742699       14.4125786127       21.5151214986
  C        -0.1976098878       13.6734659578       22.6717629618
  H        -1.9711541805       12.6189157421       23.2579690131
  H        -1.0909930671       11.7731206981       21.9745553096
  C         1.0325588627       13.0222747656       23.3515094208
  H        -0.0475942500       14.2876163406       21.7740066501
  H        -0.5089820975       14.4166743042       23.4065399618
  C         1.4277336201       11.7428643944       22.6164599990
  C         0.7018155857       12.2792800398       24.5657919514
  C         2.2621294636       14.0493296253       23.3942649622
  C         1.2026467525       10.5941463051       23.3901493825
  C         1.8724299030       11.3857811455       21.3803441412
  C         0.7533760070       10.9650328121       24.6466417479
  C         0.2029189813       12.9542187650       25.6887024683
  H         2.3880319671       14.4862637712       22.3807512084
  H         2.0595369257       14.8597506564       24.0482818547
  C         3.5377225485       13.3965608219       23.9248760412
  S         1.6254692467        9.1214087921       22.6043031501
  C         2.0189424655       10.0659848144       21.2005324629
  H         2.1075106301       12.1672655299       20.7252648345
  C         0.3951274632       10.3759548999       25.8694080809
  H         0.0747568012       14.0431098490       25.6269329437
  C        -0.1104640558       12.3844312883       26.8682992594
  H         3.8196341853       12.5298142388       23.2931177199
  H         3.2541207450       13.0341143186       24.8561390948
  C         4.6960758296       14.3295946952       24.0908708203
  C         2.4475759907        9.3863807424       19.8914157439
  C        -0.0917208364       11.0664439637       27.0303035699
  H         0.3434591819        9.3051997664       25.9732249856
  C        -0.5837297336       12.7841645335       28.0717414398
  H         5.4478286912       13.8331469770       24.7073796729
  H         4.3957374465       15.2609681180       24.6540963126
  C         5.3823657558       14.6223120254       22.7392442392
  C         2.3797007886        7.9937601562       19.6107129554
  C         2.8374047537       10.2621449856       18.7437435913
  C        -0.6015018373       10.4334621558       28.2857161068
  C        -0.8324593186       11.8221028181       28.9577678958
  S        -0.8842794235       14.3222470351       28.7864157196
  H         5.9989791464       15.4862707771       22.8703901568
  H         4.7003296252       14.8854254854       21.8725719489
  C         6.2259691261       13.4461978253       22.3112885563
  N         2.0006701265        6.9892284129       20.5158110875
  C         2.6804370797        7.4308715783       18.3662326182
  C         3.0969783448        9.7058728765       17.4808594570
  H         2.9579956933       11.2789723753       18.9795045445
  C         0.5720954963        9.7144645290       28.9365343488
  C        -1.8713260943        9.6034457747       28.1313163775
  C        -1.1577651948       12.2543056400       30.2745346775
  C        -1.1360610766       13.6039756039       30.3831779838
  H         6.8100406398       13.2450089544       23.2088272728
  H         5.6678464682       12.5654590325       21.9916958315
  C         7.1478419716       13.7875747638       21.0883188424
  S         1.9912627206        5.5782527262       19.7261722961
  N         2.5587850031        6.0720101733       18.2951654246
  C         3.0490205974        8.2093843436       17.2216570055
  H         3.4191558626       10.3355371137       16.6895864825
  H         0.8616428980        8.8667362755       28.2529656982
  H         0.0475626741        9.2464816602       29.7965503203
  C         1.7863590656       10.6016221149       29.2483115780
  H        -1.6034613193        8.6603755211       27.6512774628
  H        -2.2501806575        9.4424629924       29.1282112520
  C        -2.9635311107       10.3013449939       27.2853078283
  H        -1.3666517017       11.4547576250       31.0036068945
  C        -1.3633732698       14.3790901714       31.6097495589
  H         8.1467926251       13.5196016170       21.5304518154
  H         7.0926011453       14.8487305730       20.9463401427
  C         6.7567847409       13.1397468682       19.6918464873
  C         3.3770986962        7.6187591549       15.9802511557
  H         2.2952573789       10.6474306527       28.2353200165
  H         1.4717704546       11.5834588078       29.6126630209
  C         2.8177201896        9.9189450129       30.1149537982
  H        -2.7666435786       10.3141343291       26.1859037462
  H        -2.9713140334       11.3402423088       27.6208777132
  C        -4.3839755371        9.7068524452       27.4555240980
  C        -1.4478096276       15.7887123367       31.6700808688
  C        -1.5978853558       13.7484422005       32.9212388830
  H         7.3693238719       13.6373487584       18.9147974787
  H         6.9829534039       12.1007543276       19.6315780431
  C         5.2728692285       13.3669429763       19.3657587429
  H         3.4667653446        6.5472425124       16.0625815747
  C         3.5435583770        8.0271294356       14.6797651389
  H         2.8917457495        8.8232692654       29.8017191460
  H         2.3538892685        9.9435188619       31.1184331753
  C         4.1919417739       10.5466901759       30.1573913537
  H        -4.3519944728        8.7152059087       27.0085636221
  H        -4.6176678672        9.4937804701       28.5572569764
  C        -5.4236067344       10.6350493094       26.8757513945
  N        -1.3240402106       16.7087088337       30.5638151417
  C        -1.8723849576       16.5035632533       32.8038797435
  C        -1.9980472740       14.3722179399       34.1179659178
  H        -1.4487282193       12.7037148479       33.0016709016
  H         4.6445004777       12.9608567461       20.1358092591
  H         5.0358127227       14.4439380473       19.2968179256
  H         4.8206965153       12.9251981771       18.5160367145
  S         3.6936368381        9.6829669325       14.1951651199
  C         3.5618555655        6.9906373990       13.5992867994
  H         4.4599026865       11.0196741696       29.2177151049
  H         4.0514032452       11.4349517301       30.7776124156
  C         5.2085909829        9.5655909796       30.8195186945
  H        -4.9625110238       11.1297727344       26.0501103507
  H        -5.6936339225       11.3386384538       27.6791386707
  C        -6.6857523960        9.8798127711       26.2601837635
  S        -1.4596748536       18.2288603507       31.1307850894
  N        -1.9483008924       17.8834931612       32.6061529182
  C        -2.2058932451       15.8279207329       33.9854327912
  H        -2.3552111189       13.7327973864       34.9457798809
  C         3.9731928494        9.0352378594       12.5594969882
  N         3.8299069477        7.6817890087       12.4637765344
  O         3.3148793291        5.8364428655       13.8694310854
  H         4.7151738216        9.0750501549       31.6451348561
  H         6.0823680787        9.9385984472       31.3266583520
  C         5.7269825801        8.6879933567       29.7613133591
  H        -6.4754834477        8.8473119259       26.0727494172
  H        -7.4007454839        9.7778563770       27.0612585519
  C        -7.2722724612       10.5627098789       25.0825272526
  C        -2.5462327638       16.7301771904       35.0526453031
  S         4.2766410481       10.0088385760       11.1520363393
  C         3.9558524951        6.9729998586       11.2076148576
  H         4.8747554953        8.3167435377       29.1411831175
  H         6.3005092207        9.2064080345       29.0675421515
  C         6.6428724386        7.5671481318       30.2695684949
  H        -6.6228442001       10.7664495982       24.2455173751
  H        -7.5824586374       11.5256636509       25.4740484361
  C        -8.5890680397        9.8451070888       24.6368951329
  H        -2.2186271228       17.7179543468       35.0808994562
  C        -2.9644826832       16.3942136363       36.3134396109
  H         4.7595963404        7.3580768158       10.6184941927
  H         4.1593673276        5.9154909492       11.4643467103
  C         2.7085599196        7.1752659272       10.3077428338
  H         7.4217131727        8.0457423963       30.8735291789
  H         7.2621303529        7.1398604101       29.5429559151
  C         5.8394474474        6.4460936361       30.9968497853
  H        -8.8836258416       10.4774846720       23.8102145543
  H        -8.4728422913        8.9134905190       24.2501750906
  C        -9.7256318951        9.9039788614       25.6488341566
  S        -3.4368581026       14.8513774801       36.8273522707
  C        -3.1504366817       17.4367727264       37.3253220486
  H         2.8536196217        7.5442272450        9.2752023078
  H         2.2095029615        6.2334204561       10.3166957777
  H         1.9524462453        7.8644865313       10.7843775634
  H         4.9020854747        6.2190786467       30.4507211993
  H         5.6245120985        6.8039943082       31.9390967698
  H         6.4487175184        5.5528620870       31.1333543760
  H       -10.5780666800        9.3066397428       25.3113593485
  H        -9.9646003782       10.9849397817       25.9500942089
  H        -9.4219459711        9.3746737723       26.4838299557
  C        -3.6793432633       15.5030042663       38.4390901436
  N        -3.6283128103       16.8836643302       38.4288494747
  O        -2.7861857309       18.6201104510       37.2657815870
  S        -4.4372599489       14.5641795512       39.7419035656
  C        -3.8023416403       17.6039770981       39.6782077855
  H        -4.0813800416       18.5839968818       39.3586198094
  H        -4.7985242856       17.3566987588       40.1856950379
  C        -2.5231165422       17.7416802045       40.5974680622
  H        -2.8178604256       17.5932796752       41.6676102147
  H        -1.7251903217       17.0158181156       40.2862557730
  H        -2.0855088384       18.7194972195       40.4554602058
