352
 i =    22800, time =    22800.000, E =        24.6368172952
  H        12.1398285959        6.8953210229       32.2582056151
  C        11.6566581068        5.9975487410       31.8940712831
  H        12.4837080849        5.2963503342       31.6904656361
  C        10.9173369305        6.4307026829       30.6588797855
  C        10.7391106527        5.7243206144       33.1045673026
  C        10.2265341756        5.2230573084       30.0451787518
  H        10.1855874544        7.2545013788       30.8206063250
  H        11.7058930359        6.7788686469       30.0102064093
  H        11.2615439615        6.1183858266       33.9947198339
  H         9.7841570028        6.2526150971       33.0257113532
  H        10.6122399726        4.6190835864       33.0416597461
  C         9.2540607659        5.5366156641       28.8381358509
  H         9.6213247592        4.7857982716       30.8090054002
  H        10.9873587498        4.4966045346       29.8525826944
  C         9.9946450708        5.5272793027       27.4811981339
  H         8.4472812534        4.7968613533       28.7862100800
  H         8.8118487524        6.5231128678       28.8746245851
  C         9.2561335561        5.1081005389       26.2052523275
  H        10.9511896847        4.9573438328       27.5630968445
  H        10.6675743432        6.3298141094       27.3852602111
  C         7.8952503297        5.8684603217       26.0480896289
  H         9.8094135728        5.3030144304       25.2350747500
  H         9.1335604258        4.0434406686       26.2526083534
  C         6.8159361059        5.0653165974       25.1765600977
  H         7.5141411071        5.9578306337       26.9999164294
  H         8.0720802533        6.8852694586       25.6572193563
  C         6.5748110203        3.7354916721       25.9045042258
  C         7.3596991052        4.3227431292       23.9878201566
  C         5.5199404952        5.8587379863       24.9034912797
  C         6.8788316896        2.6349367541       25.0750946765
  C         6.1383159893        3.3890583870       27.1560692022
  C         7.4124339755        2.9638925864       23.8689475894
  C         7.7970646976        5.0399794668       22.8547889577
  H         5.7382818848        6.6234026183       24.1741387275
  H         5.3265278935        6.3939856537       25.7418496101
  C         4.3160731063        5.0575935895       24.4908479096
  S         6.5519754135        1.1141599344       25.9169171066
  C         6.1786134863        2.0032873393       27.3793293374
  H         5.8199734270        4.1263334555       27.8225934910
  C         7.8860714088        2.3526474016       22.7385358599
  H         7.8370959990        6.0817349188       22.9783230729
  C         8.2469993525        4.4186172477       21.7153481669
  H         4.5459183738        4.7541920319       23.4624713363
  H         4.2512256478        4.0979385963       25.0462139986
  C         2.9687215330        5.8852961051       24.4959714784
  C         5.7513670786        1.2786936085       28.6093172520
  C         8.3125206440        3.0857653699       21.6786019939
  H         7.8525100792        1.2246687206       22.6519487842
  C         8.7053961567        4.7939165731       20.4882726053
  H         2.2202207832        5.3988616519       23.9155115535
  H         3.1183665099        6.7365543531       23.8268367352
  C         2.4040891090        6.1644137066       25.8585963378
  C         5.9077994348       -0.1295359516       28.8737801220
  C         5.0797242358        2.0167800569       29.7015997725
  C         8.8782664225        2.3561540753       20.4442608515
  C         8.9766298395        3.7066373429       19.7056933010
  S         9.0007658087        6.3464983568       19.7475681457
  H         1.6879020886        7.0287990019       25.8926963655
  H         3.2302717305        6.3569710005       26.5392239883
  C         1.7875188951        4.9081413807       26.3723437129
  N         6.4308561835       -1.0224796296       27.9166520931
  C         5.6935334853       -0.7416752352       30.1018875744
  C         4.7844008406        1.3583865785       30.9255514383
  H         4.8103998757        3.0108196055       29.6055793593
  C         7.8269593729        1.4314859728       19.7548684868
  C        10.1150752086        1.5003025418       20.6831185305
  C         9.3662629488        4.0922568255       18.3723778635
  C         9.3908179890        5.4723295354       18.2632749317
  H         1.0140324888        4.4603736993       25.7738383468
  H         2.5938953010        4.1470744688       26.5496367774
  C         1.1200631156        5.2473603128       27.7573368361
  S         6.3520904216       -2.5006506375       28.5454092992
  N         5.9773330288       -2.1117424094       30.0533239502
  C         5.1977871884       -0.0059108436       31.2556532697
  H         4.2352094276        1.9445943808       31.6988373378
  H         7.5970525896        0.6664034472       20.4798062156
  H         8.1948781772        0.9072952954       18.9356085118
  C         6.5913166614        2.1591657961       19.2791299113
  H        10.2676431058        0.8553366158       19.8240377309
  H         9.8666295333        0.8240471533       21.4790165764
  C        11.3358252001        2.3928873767       21.0599594741
  H         9.6245018512        3.3380552929       17.6750451169
  C         9.7073854678        6.2041216727       16.9841979659
  H         0.7296265795        4.2847277198       28.1901617999
  H         0.3888939521        5.9754684825       27.5455885067
  C         2.1689963481        5.7520752619       28.8010064812
  C         5.0315690057       -0.6738099325       32.5400269877
  H         6.8771718290        2.7331983942       18.3779351591
  H         6.2496028527        2.8412541075       20.0488075402
  C         5.5024769073        1.2795561865       18.7702674683
  H        11.1099285527        3.0445725019       21.9720263101
  H        11.4655054584        3.0695446707       20.1867427436
  C        12.6033469928        1.6416854911       21.3779131888
  C         9.7446603250        7.6400562652       16.8669733495
  C        10.0365689544        5.4404662512       15.7788050225
  H         3.1737612613        5.2895673761       28.8539669506
  H         2.3937280772        6.7425044031       28.4862750386
  C         1.3954878111        5.9134239381       30.0841671028
  H         5.3715358048       -1.7117687013       32.3742879741
  C         4.6834048659       -0.2000119596       33.8019009241
  H         5.2104808572        0.5078993220       19.4647049970
  H         5.7895011501        0.7410206136       17.8861936296
  C         4.2087477176        2.0171316825       18.3305830863
  H        12.5601650020        1.1789242962       22.3909695578
  H        12.6191266990        0.7227000731       20.7061433981
  C        13.8929658333        2.4172999848       21.0256096006
  N         9.3310486137        8.5538312598       17.8372334628
  C        10.0645502972        8.2290469424       15.6681877273
  C        10.3688353354        5.9990690236       14.5609685106
  H         9.8881534435        4.3716097743       15.7016810337
  H         0.6867374917        6.6459532772       29.9938386482
  H         0.9179320699        4.9430271186       30.4898402226
  H         2.0807924927        6.1197705916       30.8613310020
  S         4.3423578675        1.4301036660       34.2215443923
  C         4.6122821085       -1.2066433464       34.9032068616
  H         4.1516960497        2.9804113144       18.8177882375
  H         4.4115121148        2.3377081282       17.2933726634
  C         2.9315899313        1.1775053786       18.5766803740
  H        13.6834729807        3.3303368807       20.4653731766
  H        14.5750148518        1.7900986128       20.4785865379
  C        14.6150455254        2.9203789101       22.2779473270
  S         9.5377941941       10.0479927636       17.1399701387
  N        10.1792842817        9.6222590139       15.7350429234
  C        10.3714587483        7.4943306336       14.4702452672
  H        10.4994787905        5.4469577033       13.6276916641
  C         4.2434337073        0.7935822903       35.8793401088
  N         4.2361017728       -0.5862609425       36.0433621235
  O         4.8504859294       -2.3594688570       34.7520595426
  H         2.1311944589        1.9368873975       18.6191751993
  H         2.9497780563        0.7653847997       19.5280993765
  C         2.5915657923        0.2201822944       17.3774493593
  H        15.3271518528        3.7064257070       22.0124121231
  H        13.9008543224        3.2856298744       22.9748228418
  C        15.2724983261        1.8020820556       23.1036602491
  C        10.7671920286        8.2195559145       13.3001059183
  S         3.8997301112        1.8233448188       37.3049272497
  C         4.0863382812       -1.2095886098       37.3570135721
  H         1.9487477453        0.7187052433       16.6720469564
  H         3.5005226514       -0.1271151804       16.9029235110
  C         1.9157787288       -1.0858271617       17.8057567275
  H        15.7021567294        1.0268972433       22.5506578575
  H        14.4739506657        1.3202911929       23.7123937358
  C        16.4567175985        2.3213457602       23.9819790385
  H        10.4977953259        9.2436428691       13.3537486728
  C        11.3047701425        7.8678772731       12.1359887828
  H         3.2292344236       -0.8172172551       37.9412476856
  H         3.8791222102       -2.2296391890       37.1769195980
  C         5.3723409225       -1.0832464164       38.0652419839
  H         0.9975991378       -0.8891990159       18.3062090128
  H         2.6111768793       -1.3814673311       18.6103562290
  C         1.8534366073       -2.1625009424       16.7717111409
  H        16.0827585445        3.1377506526       24.5375000752
  H        16.7491378137        1.6718266299       24.7791780035
  C        17.6897229366        2.6595459476       23.1909878856
  S        11.8316350423        6.2952268139       11.7132906785
  C        11.5397133615        8.8835610489       11.0917881791
  H         5.1596530673       -0.5564145933       38.9738873136
  H         5.5667417469       -2.1276859328       38.2869961105
  H         6.2007486535       -0.6208989308       37.5163211288
  H         1.3405076135       -1.8525310352       15.9203670142
  H         1.3489905820       -2.9915761073       17.1936216677
  H         2.7951003907       -2.5481586113       16.4226274114
  H        18.4042888366        3.0622845883       23.8955971987
  H        17.4453921558        3.4749525868       22.4819420518
  H        18.1517336388        1.8858786257       22.6616424650
  C        12.2979001340        7.0444701038       10.1357962847
  N        12.0820494142        8.3727732736       10.0357005533
  O        11.1716758836       10.0261557872       11.0984808506
  S        13.1889371980        6.3247113257        8.7910945861
  C        12.1125282911        9.1355998742        8.8037433664
  H        12.2780573959       10.1977652213        8.9576215074
  H        13.0393128247        8.8762271982        8.2990151809
  C        10.9012733411        8.7814281814        7.9266580521
  H         9.9307844621        9.0822828841        8.4222356379
  H        10.9286206875        9.4239033764        7.0255897523
  H        10.8227083285        7.7637089561        7.6561248571
  H        -4.2192089098       14.2206908979       16.1567712726
  C        -3.7399967096       13.2134963832       16.0831992834
  H        -4.5494446229       12.4572158828       16.2330428481
  C        -2.6222597716       13.0427096829       17.1705974719
  C        -3.2912137121       13.0046835079       14.6701602912
  C        -3.1422154133       13.2730468539       18.5407266595
  H        -2.3441970623       11.9793256097       17.0355603193
  H        -1.8675434164       13.7055317759       16.7520444868
  H        -4.1036376052       13.2071336355       13.9449740138
  H        -2.4807144717       13.6750432403       14.3931258787
  H        -2.9980466260       11.9765311277       14.5868234479
  C        -1.9578597215       13.4108821117       19.5734433334
  H        -3.8391827534       12.4551370249       18.6981524651
  H        -3.7639434641       14.1665484835       18.6064043525
  C        -2.3365684535       13.1913413835       21.0456307309
  H        -1.1875330728       12.7593847572       19.2510720349
  H        -1.5675960400       14.4108386218       19.5217303638
  C        -1.2403228287       12.4285391395       21.7410076708
  H        -3.1597509058       12.4510220384       20.9433745156
  H        -2.7430726791       14.0315015274       21.6841291585
  C        -0.2992614771       13.4263457005       22.3431806501
  H        -1.6580051893       11.9914596896       22.6193445855
  H        -0.8127901570       11.6391214468       21.1342343410
  C         0.8703504548       12.7827785111       23.1732204629
  H         0.1626977278       14.0212999669       21.5123650024
  H        -0.7912559105       14.1769969420       22.8858041617
  C         1.2899709624       11.4647055631       22.5004270848
  C         0.4722817420       12.0351033988       24.3624346691
  C         2.0037738811       13.7593836277       23.3463581131
  C         0.9782604818       10.3602642815       23.3038615770
  C         1.6416084588       11.0635054037       21.2284890085
  C         0.4565468445       10.7339776518       24.4980576469
  C         0.0185318700       12.7848534861       25.4731807533
  H         2.2673918875       14.2629847472       22.3828015193
  H         1.6497957417       14.5898811168       23.9413213709
  C         3.2683080629       13.2454360926       23.8798975706
  S         1.4312291999        8.8105350672       22.5434442632
  C         1.8646141621        9.6913374290       21.1436818581
  H         1.7252350773       11.7679729165       20.4394134763
  C         0.0441201306       10.1329654780       25.6585130550
  H         0.0858798513       13.8519477547       25.3849544129
  C        -0.4059022053       12.2133386444       26.6836965054
  H         3.6478326778       12.4726806645       23.2424676901
  H         2.9677215576       12.7403193012       24.8523412239
  C         4.4118241458       14.2893017098       24.1695293344
  C         2.2950819056        9.0891389142       19.8458932419
  C        -0.4508958894       10.8438492484       26.7913004731
  H         0.1011789429        9.0814741619       25.7554965027
  C        -0.8741481268       12.5641577379       27.9033005885
  H         4.9798822675       13.9655010195       25.0251808280
  H         3.9775639383       15.2174524398       24.4717320756
  C         5.2747349183       14.5647190517       22.9472541999
  C         2.3207911349        7.6856124077       19.5495948674
  C         2.8570976873        9.8281879140       18.6606305356
  C        -0.7109994323       10.0805579484       28.0342946132
  C        -0.9857350557       11.4850818150       28.7509596372
  S        -1.0767687416       14.0746837108       28.7260369635
  H         5.8053008073       15.5204072575       23.1666394029
  H         4.6138784019       14.8390908253       22.1442964560
  C         6.3006205529       13.3761999300       22.7615401115
  N         2.0115935593        6.6276803225       20.4325299583
  C         2.5360144783        7.1994788735       18.2797967967
  C         3.1549825969        9.3470227256       17.4196501253
  H         2.9291360238       10.8728262593       18.8175063920
  C         0.4977198031        9.3669200840       28.6163536868
  C        -1.9322382034        9.1715029435       27.8448002554
  C        -1.2210507474       11.7947145436       30.0639660314
  C        -1.3760592163       13.1722798784       30.2262003461
  H         6.9769664286       13.3458999903       23.6369572825
  H         5.6946837343       12.4696951027       22.9141582525
  C         7.1482234175       13.4148915531       21.4416512935
  S         2.0089443473        5.2323540127       19.6499398381
  N         2.3609143327        5.8366479934       18.2104894720
  C         2.8903170148        7.9361368802       17.1124310485
  H         3.5032499695       10.0796525274       16.7038101613
  H         0.6759811538        8.5814052836       27.8826938704
  H         0.3396886111        8.9112543010       29.5841074470
  C         1.7125676739       10.2355931898       28.6370925396
  H        -1.6710550364        8.7013492301       26.8920357609
  H        -1.8263147070        8.2752284633       28.4233481151
  C        -3.2625295239        9.7651164311       28.0806622152
  H        -1.2444280788       10.9865367431       30.8129394383
  C        -1.6123513934       13.8497480423       31.5518192854
  H         8.0610259409       12.9945897190       21.8328354409
  H         7.3255578434       14.4535874748       21.1924067352
  C         6.6090969322       12.4932714120       20.3470992302
  C         3.1170421671        7.2101381099       15.8633956189
  H         2.0927892734       10.4442645309       27.5867183179
  H         1.4753196999       11.2361902934       29.0069446115
  C         2.8520804484        9.5730618623       29.3185347358
  H        -3.3611884591       10.7619826712       27.7791774326
  H        -3.2717975523        9.6901626118       29.1826159482
  C        -4.4848994069        8.9078545681       27.6298616970
  C        -1.7055656915       15.2255088306       31.7484926145
  C        -1.6989637531       13.0197240599       32.7819207128
  H         7.2985394519       12.3700398004       19.5214414150
  H         6.4510376351       11.5573865370       20.7785150304
  C         5.4278883091       13.1713586916       19.7519911143
  H         2.8989585043        6.1713500359       15.8791948520
  C         3.4665071162        7.5878591422       14.5584941740
  H         3.2085955673        8.7302169484       28.6708984877
  H         2.7527548659        9.1901160209       30.2880093546
  C         3.9884633700       10.4825962911       29.6079613928
  H        -4.5376556022        8.6931723311       26.6010346391
  H        -4.4620098819        8.0032557344       28.2324736899
  C        -5.8039993151        9.6309979843       28.0593706603
  N        -1.5322485579       16.2173213889       30.7801415099
  C        -1.9564976501       15.7889165999       32.9746409854
  C        -1.9418037826       13.5855781641       34.0693452645
  H        -1.5019019055       11.9453038294       32.7640926538
  H         5.3060275284       14.3006209037       19.9755819224
  H         5.4103880581       13.2860091328       18.6695612535
  H         4.4583877161       12.6682565703       19.9662954878
  S         4.0304511229        9.1629874055       14.1528944815
  C         3.3967276387        6.5700227316       13.4385181409
  H         4.0995822773       11.2024262495       28.7957520441
  H         3.8127924605       11.0341628761       30.5398408294
  C         5.3657726182        9.6791295533       29.7775357270
  H        -5.6748351732       10.7337539997       28.0128779179
  H        -6.0400317010        9.3928935756       29.0837361066
  C        -6.9965493917        9.0931115944       27.2181828159
  S        -1.6498878922       17.6942792896       31.4533317374
  N        -2.1195932027       17.1460238032       32.9587949811
  C        -2.2201592593       15.0199352027       34.1801018123
  H        -2.0233849332       12.9392710936       34.9654452541
  C         4.1076544252        8.4749974081       12.5522698305
  N         3.8747836774        7.1783056132       12.3671513600
  O         3.2044711031        5.3696103592       13.5677176371
  H         6.1809925590       10.3913082699       29.5923171821
  H         5.3113833825        8.8330990388       29.1308334441
  C         5.4440745952        9.0721739711       31.1468381600
  H        -6.7642539954        8.9681538931       26.1741927822
  H        -7.0976914245        8.0172797513       27.5936775638
  C        -8.2920873050       10.0187787222       27.1722345612
  C        -2.4876876788       15.7380101585       35.3198674678
  S         4.5882180742        9.3744655898       11.0855593231
  C         3.9062948215        6.4509167157       11.1090698723
  H         5.8962017368        9.7518443277       31.7945766206
  H         4.4355953783        8.9383643355       31.4928051976
  C         6.0396543912        7.6946339728       31.1753320634
  H        -8.0168137226       11.0346696565       26.8199760130
  H        -8.6378314524       10.1008700300       28.2559670308
  C        -9.3937876449        9.5618366394       26.3531628961
  H        -2.1906453427       16.8006841467       35.4047001275
  C        -3.0938572180       15.4687753781       36.5078530265
  H         4.7384441691        6.7247747327       10.4613941517
  H         4.0042691697        5.3818460921       11.2805833163
  C         2.6411033212        6.7495887587       10.3650401332
  H         6.3661908270        7.4817630239       32.2340060541
  H         6.8801608043        7.7090230951       30.5055505644
  C         5.0689912891        6.6040159637       30.7180441641
  H        -9.7722753597        8.6093423475       26.7221407744
  H       -10.2226383829       10.2175934322       26.5427621344
  C        -9.0115879280        9.5175207826       24.8452977326
  S        -3.6844936321       13.9035984436       36.9887168021
  C        -3.2083526914       16.5289091630       37.5304554236
  H         1.8063491469        7.2095235168       10.9379786030
  H         2.8061217773        7.3283949764        9.4903435770
  H         2.2041361698        5.8028867536       10.0186552439
  H         4.8738373717        5.8819276595       31.4755907405
  H         5.4908161817        5.9785714527       29.9647391342
  H         4.1473914444        6.8966900473       30.3051523766
  H        -8.1936244277        8.8236387120       24.6054001658
  H        -8.5350202035       10.3855609371       24.4319276966
  H        -9.8583797135        9.3042383844       24.3059869165
  C        -4.0036268184       14.7191733876       38.4881835260
  N        -3.8416447863       16.0401100317       38.5900847064
  O        -2.9326453311       17.6722948307       37.4068874563
  S        -4.7056796428       13.9078693152       39.9323051754
  C        -3.9717723080       16.9372992013       39.7979214116
  H        -4.1801195750       17.9650688876       39.4745617515
  H        -4.7685039470       16.4995509689       40.4243781682
  C        -2.6540195064       16.9067787750       40.6645074905
  H        -1.8314415537       16.3534922463       40.2438947582
  H        -2.3560369220       17.9447924718       40.9221918844
  H        -2.8269360330       16.5139425218       41.7055720956
