352
 i =    62200, time =    62200.000, E =        25.1212989337
  H         9.2690455054        5.4636096214       31.2762210148
  C         9.8743292439        6.2487765417       31.6951540928
  H         9.1861086549        6.9636405674       32.1386890739
  C        10.6917441513        6.9685709938       30.6757666857
  C        10.6929488014        5.7214191350       32.8785719016
  C        11.1572855313        6.0103296643       29.6624592270
  H        10.1185184994        7.8077847066       30.2082337805
  H        11.5648735586        7.3738917785       31.1470468468
  H        10.1669452173        5.6852942682       33.8256091848
  H        11.0232189719        4.7088922090       32.6840058681
  H        11.6088950393        6.2915481670       33.0518722650
  C        10.1235491081        5.6611166788       28.6503279002
  H        11.5255235113        5.1253206010       30.1477559761
  H        11.9352460661        6.6224177917       29.1562097236
  C        10.5449058407        5.6005685016       27.1666996909
  H         9.6664920443        4.7873742872       28.9172366462
  H         9.2681961888        6.3138932617       28.7337012925
  C         9.4043966287        5.0761494705       26.2928625741
  H        11.3609738424        4.9052955469       27.1168548146
  H        10.8462071597        6.6017622575       26.8151472562
  C         8.1800767815        5.8617655775       26.0555897368
  H         9.8917253525        4.9694834617       25.3734037505
  H         9.2088350004        4.0115402686       26.5810075255
  C         7.1343079635        4.9609476669       25.4427390578
  H         7.7851768318        6.3233309085       26.9276296725
  H         8.4366381156        6.6801121588       25.3879978741
  C         6.8455601198        3.6421877454       26.1688730922
  C         7.6525853590        4.2250841702       24.2330300662
  C         5.8226563214        5.6442956213       24.9868034038
  C         7.0798522259        2.5623620708       25.3734776844
  C         6.4664276821        3.2989113661       27.4555520242
  C         7.6077612820        2.8836547050       24.1249999122
  C         8.1238994479        4.9027811269       23.1617740250
  H         5.3302208183        4.9198563888       24.2868935391
  H         6.0345581152        6.6521411975       24.5308308411
  C         4.7497884386        6.1117620429       26.0687668421
  S         6.6277258918        1.0446588553       26.2253430924
  C         6.2030177351        1.9292173047       27.6529797870
  H         6.2542576273        4.1026854002       28.2044540060
  C         8.0069989414        2.2084433273       23.0415734859
  H         8.2119893064        6.0174625183       23.2333895896
  C         8.4220344872        4.2857356771       21.9466368914
  H         4.4245542832        5.2852879685       26.7139041319
  H         5.1444076366        7.0625039941       26.5523267118
  C         3.4947628689        6.6462136160       25.4778158038
  C         5.7239915108        1.2455514635       28.8982957949
  C         8.3406711410        2.9738053288       21.8527992536
  H         7.8820376977        1.0961664319       23.0053000179
  C         8.8615012609        4.6028849581       20.6772593655
  H         2.9738084986        5.9847528765       24.7696002306
  H         3.7620131496        7.4529181698       24.8280519602
  C         2.5241045163        6.8805453437       26.6215885437
  C         5.7244649576       -0.1433717903       29.1396355587
  C         5.1457549522        2.0866880546       29.9637148550
  C         8.6152279162        2.2570795261       20.5292687566
  C         8.9237798095        3.5329741542       19.8241476792
  S         9.1361577423        6.0236134506       19.9041733534
  H         1.8133499308        7.5698204797       26.1964008201
  H         3.0319659043        7.4222578002       27.4075271535
  C         1.8000960891        5.6081431039       27.1139497652
  N         6.0850047201       -1.1537210842       28.1927318374
  C         5.4898977929       -0.6930721281       30.4080787864
  C         4.8748693203        1.5444255581       31.2641488266
  H         5.0817616176        3.1558288221       29.7917057772
  C         7.4459502663        1.4071691853       19.9610023779
  C         9.8990934595        1.4320066509       20.5660711884
  C         9.2449932355        3.8413377010       18.4869797678
  C         9.3880812350        5.2016079860       18.3792803802
  H         0.9260418020        5.4438190510       26.5070882215
  H         2.3929290027        4.6879700230       26.9919574255
  C         1.5241583805        5.8167547027       28.5878391529
  S         6.0088137928       -2.6199675827       28.9591528298
  N         5.5453920470       -2.1213589715       30.4603681987
  C         5.0659191805        0.1300534456       31.5279528197
  H         4.5831956845        2.1746989650       32.0701107757
  H         7.2022650307        0.6659910924       20.7116881802
  H         7.6854346837        0.9497300677       18.9786887270
  C         6.3130893843        2.4371472461       19.6966878193
  H        10.0722139602        1.0592028714       19.5724352840
  H         9.7588277178        0.6665704688       21.3334002642
  C        11.1119183443        2.3278702548       20.8767878275
  H         9.4191499996        3.0864964894       17.7394429946
  C         9.8124262877        5.9614302114       17.1915913771
  H         0.6983533041        5.1912346523       28.8098054451
  H         1.1757198735        6.8505734897       28.7774860426
  C         2.7665095365        5.4653495362       29.4557515685
  C         4.8107788074       -0.5314231469       32.7896276509
  H         6.5525856436        3.2895337520       19.0040165239
  H         5.9810515547        2.8537600179       20.6643722896
  C         5.0690832888        1.7601420795       19.1407112325
  H        10.7604315542        3.0596729210       21.6391895691
  H        11.4126542891        2.8713349423       19.9848310393
  C        12.2954465993        1.5008316057       21.3295845897
  C         9.8968085482        7.3711141314       17.0816072744
  C        10.0487815656        5.2903402230       15.8740727961
  H         3.1466959127        4.4816674133       29.1457841010
  H         3.4725325635        6.3218176979       29.3816457104
  C         2.3737325194        5.3563705674       30.9191077692
  H         4.8564237171       -1.6245813631       32.7077882750
  C         4.5280495964       -0.0537953429       34.0810119560
  H         4.5067461390        1.3422769763       19.9945781719
  H         5.3698738616        0.8164230430       18.6540786179
  C         4.2051564892        2.6064411361       18.2105420732
  H        11.8029670037        0.8858143993       22.0694252585
  H        12.5665071866        0.8252485342       20.5733738808
  C        13.3820948726        2.3437033671       21.9177521115
  N         9.5946389639        8.3335306739       18.1030037598
  C        10.3368607746        8.0311321977       15.9300724535
  C        10.4309770963        5.9227753684       14.7166506926
  H         9.9330061113        4.2480222328       15.7611926427
  H         1.6733097897        6.1171137052       31.2737387594
  H         1.9393304057        4.3492153100       31.1989789006
  H         3.2859908494        5.4023533123       31.4606659474
  S         4.1925334974        1.6318204137       34.5581159700
  C         4.3630500033       -1.0458253630       35.1483189671
  H         3.6677655633        3.4899386198       18.5249970166
  H         4.7097856782        3.0028558478       17.3020989583
  C         3.0009152892        1.8076169962       17.6980030712
  H        13.0339312385        2.8526725907       22.8188373893
  H        13.5408949842        3.1644935500       21.1924618031
  C        14.6991858597        1.6692566937       22.2399099200
  S         9.7689405728        9.8702189436       17.5425418175
  N        10.3808487299        9.4608664146       16.1000162840
  C        10.6268285751        7.4167971052       14.6887705942
  H        10.5646417791        5.3442384237       13.8158172716
  C         3.9459956827        0.9227396898       36.1563225638
  N         3.9186659904       -0.4185755698       36.2941091493
  O         4.5542644724       -2.2334650265       34.9674434076
  H         2.1230227645        2.4164229495       17.4698927771
  H         2.7002476978        1.1088253202       18.4812362291
  C         3.1993386142        0.8613642367       16.5707893666
  H        14.4356536016        0.8515267177       22.8589625226
  H        15.2797870352        1.3210707347       21.3835027670
  C        15.4977165529        2.6438314019       23.1771942490
  C        11.0067056283        8.1754870739       13.5329662961
  S         3.4221511065        1.8065885235       37.5681996806
  C         3.9565691342       -1.1761380826       37.5971446818
  H         2.6837461982        1.2185456096       15.7057953318
  H         4.2785897117        0.7505660179       16.3264189221
  C         2.5351277571       -0.4597683831       16.8968687231
  H        15.0269810890        2.7288684463       24.1167045685
  H        15.4434340650        3.6702416987       22.7308042468
  C        16.9109738984        2.1829816415       23.5780533369
  H        10.8885777306        9.2638050107       13.7301988587
  C        11.6670068957        8.0003612729       12.3146168017
  H         3.3834085964       -0.8874670581       38.4723461039
  H         3.7500761453       -2.2402738140       37.5101796417
  C         5.3961855000       -1.1266084751       38.0408739098
  H         2.2625884765       -1.0386645798       15.9816422365
  H         1.5694480657       -0.3126983716       17.4021106458
  C         3.3848348257       -1.4341264415       17.5898021753
  H        17.1621579991        2.6377528941       24.5792290443
  H        16.9489722373        1.1436532777       23.9411687602
  C        17.8800319250        2.5267899841       22.4381321163
  S        12.2953423864        6.5136062621       11.6961913537
  C        11.7729885969        9.1310783471       11.3458526732
  H         5.5167873221       -0.1702350965       38.5770599485
  H         5.5628725307       -1.9596900731       38.6712168334
  H         6.0841551234       -1.3625529947       37.2509269444
  H         2.8612936101       -1.8276197115       18.5276599299
  H         4.3556667135       -1.1038242315       17.8472226427
  H         3.7063012739       -2.2948868604       16.9731955962
  H        18.9674548952        2.3726020988       22.6349720884
  H        17.7838262776        3.6072134619       22.3221083302
  H        17.7103337130        2.0971127745       21.4863176696
  C        12.6129540507        7.4372628370       10.1519118728
  N        12.2553455344        8.7159546813       10.2019577219
  O        11.2591981789       10.1964816973       11.4847423183
  S        12.9937758677        6.6036617118        8.6634447225
  C        12.4615771694        9.6074357024        8.9818395182
  H        12.8261390115       10.5821635736        9.3613932113
  H        13.3332660065        9.4004822133        8.3299188977
  C        11.2840232743        9.6195683749        8.1008577268
  H        11.3783863100        8.7801583881        7.3890962738
  H        10.3750303712        9.5076304805        8.6991505578
  H        11.2687827288       10.4744138022        7.4486210515
  H        -3.8782563201       13.3277897544       16.9183592138
  C        -2.7975023631       13.6418675649       16.7188832980
  H        -2.2558053626       12.7339896613       16.7323182410
  C        -2.2900292743       14.5500091615       17.7965333357
  C        -2.8945431426       14.1983171023       15.3396749556
  C        -2.8294830904       14.1209194287       19.1881726111
  H        -1.2047460658       14.4851514416       17.8474865120
  H        -2.6333294519       15.5585857295       17.5910844475
  H        -3.1346957819       15.2791830775       15.4090256910
  H        -1.8942688649       14.2005890230       14.9233369616
  H        -3.5232624322       13.6819863992       14.6601169959
  C        -1.7312759660       13.7634204299       20.1664267863
  H        -3.5631577240       13.3242934297       19.2244327697
  H        -3.2923076156       15.0255124783       19.6312769034
  C        -2.2721874062       13.5991947930       21.5567477631
  H        -1.0721461208       12.9758144228       19.7478244163
  H        -0.9906352468       14.5215356882       20.2822894156
  C        -1.1418992724       13.0887497653       22.3780800254
  H        -3.1605277073       12.9830453325       21.6516696192
  H        -2.4611183668       14.6636720698       21.8793000394
  C        -0.0182870885       14.0892555760       22.7447512405
  H        -1.5449460751       12.7903472155       23.3111740389
  H        -0.7658116760       12.1868544683       21.9125010503
  C         1.2069939733       13.4919984133       23.4670760257
  H         0.3400097761       14.6459341693       21.8615937916
  H        -0.3365112753       14.8306704370       23.4979066847
  C         1.5413505741       12.1162354021       22.7610967873
  C         0.6080629765       12.7484661722       24.5982123766
  C         2.4314365925       14.3909467783       23.6437670915
  C         1.1102438312       10.9953641128       23.4271090165
  C         2.0283125125       11.7960554110       21.4356848224
  C         0.6064227579       11.3935195428       24.6474785158
  C         0.0927696993       13.5063679602       25.6651737630
  H         2.6688826934       14.8023913215       22.6717275933
  H         2.2194754105       15.3010801253       24.2394372486
  C         3.7089694144       13.6090342066       24.1937739966
  S         1.4358219899        9.5743193744       22.5823456721
  C         2.1417205892       10.4416382378       21.2055690680
  H         2.2450858111       12.6327212121       20.7880682354
  C         0.0455498733       10.7966416995       25.7623208764
  H         0.0895269787       14.5487545258       25.5796906705
  C        -0.2699600406       12.8394451051       26.8126031632
  H         3.8211128155       12.6525078178       23.6584751707
  H         3.5540850008       13.3067313950       25.2507045443
  C         5.0697878538       14.3435171156       24.0909640252
  C         2.4739591773        9.7783799215       19.9342870157
  C        -0.3347145058       11.5030077462       26.8863940259
  H        -0.0935596051        9.7090309040       25.7664410736
  C        -0.7832522678       13.2025218945       28.0312587527
  H         5.6656089468       13.9310664252       24.8508850248
  H         5.0011599859       15.4347904139       24.2948474322
  C         5.6271380725       14.3530485427       22.7320795955
  C         2.3947935291        8.3871861681       19.6668396127
  C         2.9564914336       10.6710145045       18.7800363583
  C        -0.7700084997       10.7724718228       28.1184864962
  C        -1.0412300681       12.1515000191       28.8463520134
  S        -1.0481522144       14.7142597768       28.9420266529
  H         6.4650024402       15.1186403802       22.6557283358
  H         4.7793998978       14.6023725641       22.0528868960
  C         6.2413055831       13.0850761445       22.2409005424
  N         1.9746508503        7.4334872362       20.6587697113
  C         2.7895359288        7.8125595694       18.4283924079
  C         3.1590377616       10.1088810183       17.5153300324
  H         3.1998205369       11.7075037606       18.9200511585
  C         0.2961945740        9.9492556851       28.7869601167
  C        -2.1406885759       10.0933800976       28.0354663372
  C        -1.4984598478       12.4408627496       30.1043431638
  C        -1.5252631795       13.7920308583       30.3643933254
  H         6.9551605813       12.7007768558       23.0120224109
  H         5.4331070731       12.4045006923       21.8810678112
  C         7.1270300361       13.3507415680       21.0119397289
  S         2.1299386038        5.9146374815       19.9835137700
  N         2.5908244459        6.4035713917       18.5203562526
  C         3.1846054081        8.5894042235       17.3047908760
  H         3.3271067067       10.7182479638       16.6659767067
  H         0.4820442038        8.9998080834       28.3426979009
  H        -0.0358249276        9.6615879797       29.7790903371
  C         1.6590971569       10.5008640149       28.8979370240
  H        -2.0867372210        9.0758978816       27.6248279222
  H        -2.4079530454        9.9580293793       29.0297693408
  C        -3.1833320943       10.9180770433       27.3022425368
  H        -1.6660236503       11.5936553816       30.7647668280
  C        -1.9880517148       14.4842188002       31.5853486580
  H         7.4234500923       12.3911697812       20.5648305188
  H         8.0080626348       14.0308636416       21.0840069606
  C         6.2482993481       13.7588310938       19.7970815521
  C         3.3177128041        7.8848880298       16.0475525093
  H         2.1033188277       10.9242676668       28.0157934394
  H         1.5629168802       11.2815307732       29.5906089878
  C         2.6966789607        9.5896689610       29.5865575541
  H        -2.9129614385       11.4594601553       26.4685696404
  H        -3.4680092975       11.6050430251       27.9610846859
  C        -4.5456900527       10.1124362308       27.0800680344
  C        -2.0286841479       15.8203029442       31.7877962824
  C        -2.1280026590       13.6339775259       32.8094288775
  H         5.4917541931       12.9043274177       19.7284439619
  H         5.7937424552       14.6591565250       19.9863274586
  C         7.0758930994       13.7165518850       18.5343979412
  H         3.0717662712        6.8706921701       16.0583689314
  C         3.6766703972        8.2608365491       14.7709849595
  H         3.0350207834        8.8290937785       28.9122689508
  H         2.3272041484        9.2190314380       30.5426007773
  C         4.0178094107       10.3378517778       29.8350367742
  H        -4.4317152576        9.0757884392       26.6250226793
  H        -4.9399596049        9.9265769673       28.0686184039
  C        -5.5622228793       10.9916041238       26.3818438523
  N        -1.7717121064       16.8162665722       30.8327313169
  C        -2.3508925688       16.4058022495       33.0007371621
  C        -2.3359723951       14.2039197250       34.0655524754
  H        -1.8909900681       12.5840511301       32.6119109593
  H         6.8209506784       14.4677465206       17.8369087576
  H         8.1221860369       13.7609288619       18.7445981874
  H         7.0811658605       12.7297591454       18.0114529736
  S         4.2384501891        9.8386354559       14.3218636999
  C         3.7065992670        7.2047873774       13.7147252685
  H         4.2222281731       10.7982013823       28.9149394339
  H         4.0244302949       11.1116447205       30.6007792911
  C         5.1168256077        9.3772246793       29.8869200658
  H        -5.0770875989       11.4393383075       25.5000407956
  H        -5.8313953327       11.7315514781       27.1502176870
  C        -6.7964043145       10.0536521473       26.0915956197
  S        -1.9925284366       18.2758603352       31.4624052000
  N        -2.5229834623       17.7876641220       32.9209321298
  C        -2.5916811531       15.6569854094       34.1534685104
  H        -2.5245981538       13.5502366751       34.8450490809
  C         4.4908146411        9.1381145003       12.7408245222
  N         4.0525789842        7.8518996883       12.5706727407
  O         3.4025099806        6.0358149994       13.8050669724
  H         6.0380233717        9.9199602926       29.8813210599
  H         5.0692248663        8.8007509254       28.9562099575
  C         5.1063900586        8.6199201369       31.1510138746
  H        -6.4947261779        9.1208085345       25.6235911479
  H        -7.1362017438        9.6782719767       27.0277228266
  C        -7.9180288490       10.7923185418       25.4956033680
  C        -2.8328036642       16.4154762329       35.3296037063
  S         4.7502943134       10.1684221031       11.3090485909
  C         3.9748477694        7.1600375969       11.2897728284
  H         4.9270298192        9.2526601547       32.0406934173
  H         4.2982637189        7.8880814433       31.1213409802
  C         6.3337707117        7.6663194751       31.2918152880
  H        -7.5579516002       11.0902952128       24.5051534486
  H        -7.9668470933       11.7835437359       26.0050909494
  C        -9.2960408515       10.0255372145       25.3640933276
  H        -2.5904050030       17.4362702742       35.3597715911
  C        -3.3601036908       16.0260971833       36.6004105468
  H         4.3933091052        7.7008558146       10.4714640176
  H         4.5300728073        6.2564532904       11.4864921083
  C         2.5317478692        6.7354114938       10.9117452110
  H         6.4231781952        7.5025616310       32.3382397873
  H         7.2906608158        8.0429201454       31.0068814907
  C         6.1834705410        6.2848174353       30.7273063966
  H        -9.7958387105       10.2714267212       24.3906601408
  H        -9.1186260308        8.9913990243       25.2063815219
  C       -10.1499228492       10.1504385831       26.6412460477
  S        -3.9773492201       14.5367246719       37.1093010226
  C        -3.4206766767       17.1491152475       37.5810975173
  H         1.8956521529        7.4120899580       10.2750101076
  H         2.6447861237        5.8610709451       10.3141104843
  H         1.8543028600        6.4252592488       11.6465361028
  H         5.5109722330        5.6997482224       31.3683377636
  H         7.1961545859        5.7485601793       30.7346176164
  H         5.8580584683        6.3245881923       29.7007686790
  H       -11.0809568979        9.8281014369       26.2397561202
  H       -10.1746602050       11.2085253560       26.7787452184
  H        -9.8377027861        9.6403041218       27.5532084338
  C        -4.4028183716       15.4076639970       38.5717861813
  N        -4.0935484703       16.7071054893       38.6047044128
  O        -3.0051166299       18.2672416666       37.4491112900
  S        -5.2969039094       14.6302720561       39.8619345990
  C        -4.3525182795       17.5948544464       39.7652196360
  H        -4.6724416399       18.5851208348       39.4056576646
  H        -5.1732161778       17.1869829839       40.3403446286
  C        -3.1393864551       17.4985878513       40.7062018260
  H        -2.2428401705       17.5533620086       40.1172972842
  H        -3.1237312321       18.3477262765       41.4068255855
  H        -3.2201444378       16.5712922773       41.3229492494
