352
 i =    29900, time =    29900.000, E =        24.9023545031
  H        11.4171718939        7.4693751512       32.8575583669
  C        11.6452080327        6.4301399202       32.4599035769
  H        12.6375408626        6.5447190076       32.0561457767
  C        10.7140044417        5.9842246770       31.3509389293
  C        11.6369568063        5.5152637484       33.7652693181
  C        11.0625655190        6.4286785077       29.9393038470
  H        10.5901828797        4.9191994448       31.4004983457
  H         9.6782685250        6.1439074816       31.7049912109
  H        12.4951505792        4.7839931578       33.7436147392
  H        11.5568474510        6.1336746578       34.6267585806
  H        10.7082971400        4.8801214240       33.7791399133
  C        10.6443576418        5.3447969363       28.9249111117
  H        12.0714281462        6.7657879169       29.6869009026
  H        10.4765874592        7.2909344622       29.5875409464
  C        11.0866717052        5.6534037394       27.4530328039
  H        11.1193446897        4.3734063989       29.1230933739
  H         9.5588518749        5.2952541604       28.9436989749
  C        10.0143836420        5.1501790690       26.4585908654
  H        12.0622755591        5.1480828504       27.2899852366
  H        11.1993009502        6.7069300383       27.1788279724
  C         8.7833357574        5.9858656961       26.3440873483
  H        10.3828048221        5.1997364035       25.4170414891
  H         9.7121719942        4.1884546265       26.8020175908
  C         7.5100373066        5.3039655821       25.6886022504
  H         8.3936800239        6.2124209107       27.2972558908
  H         9.0212595582        7.0202077788       26.0031729508
  C         7.1231453552        3.9874860274       26.2988335143
  C         7.9030890959        4.5695696709       24.4435601541
  C         6.2088625435        6.2945725825       25.5846109661
  C         7.2384974827        2.8764315988       25.4547282746
  C         6.7847959143        3.5886994436       27.5930499636
  C         7.7687573465        3.2344232727       24.2464879039
  C         8.3425012429        5.1829806215       23.2641599512
  H         6.5474783135        7.2859770501       25.1864378694
  H         5.8572180494        6.5010900396       26.6108147484
  C         5.0641882630        5.5372886372       24.8636371666
  S         6.7603824501        1.4258936465       26.1570961803
  C         6.3835168995        2.2816264438       27.5657711715
  H         6.6593799816        4.3377399836       28.3404808638
  C         8.0904453529        2.6197346957       23.1059428797
  H         8.2841755201        6.2726799868       23.2661438438
  C         8.6597083292        4.5811058571       22.0892100222
  H         5.3260168490        5.1804505485       23.8689037073
  H         4.8604195875        4.6566555185       25.4244189807
  C         3.8088021573        6.3309652876       24.6539775470
  C         5.8697583168        1.5289276718       28.7392093953
  C         8.5503177832        3.2257926070       21.9949146652
  H         7.8146237890        1.5714493822       23.1282810193
  C         9.0128133517        4.9489551196       20.8034284510
  H         3.1306117874        5.7293527589       23.9552190269
  H         3.9115508527        7.3893867493       24.2748659608
  C         2.9956726631        6.5107092189       25.9839609137
  C         5.8936163225        0.1544805744       28.9974268476
  C         5.2699878233        2.2891697926       29.8616061653
  C         8.9132751544        2.4623617036       20.7099318060
  C         9.2013926308        3.8387158933       19.9998761698
  S         9.1109033143        6.4517408369       19.9531795071
  H         2.2023781973        7.2547111738       25.7335737571
  H         3.7116701851        7.0075759553       26.6913587088
  C         2.5081272650        5.2106853739       26.6435256909
  N         6.2857471449       -0.7970957367       28.0599628321
  C         5.5709416969       -0.4436191339       30.2208859038
  C         4.8974846583        1.6826886497       31.0443818998
  H         5.0568799727        3.3280530849       29.7312317416
  C         7.8797959439        1.7317442130       19.8776157110
  C        10.1701129675        1.7123052977       20.8956119828
  C         9.6144098558        4.2317859086       18.7264781410
  C         9.6164176112        5.5824630507       18.5668663921
  H         1.6818560951        4.9113222612       26.0131885481
  H         3.1769915192        4.4371368427       26.5773875969
  C         1.8345838012        5.4099060256       28.0094298775
  S         6.3090641630       -2.3159595397       28.7479024076
  N         5.6680744477       -1.8375005188       30.1991457890
  C         5.0803013857        0.2603338979       31.3651811074
  H         4.4650332394        2.3504598794       31.7977776315
  H         7.4835672155        0.8543651846       20.3932154864
  H         8.2751038962        1.2239462479       19.0176259294
  C         6.8439672129        2.6587489715       19.2210115157
  H        10.4082916692        1.2369745921       19.9224404102
  H         9.9587138940        0.7973273079       21.5200347643
  C        11.3173864661        2.5459530341       21.4824120082
  H         9.6790704619        3.4879818670       17.9372517805
  C         9.9764318026        6.2691964320       17.2748442413
  H         1.4745323231        4.4617129225       28.4259372139
  H         1.0609963557        6.1712241133       27.9529412079
  C         2.9735397227        5.8091397961       28.9535846151
  C         4.9594140787       -0.4275429392       32.6334083903
  H         7.2488102974        3.3212389774       18.4509148030
  H         6.4761575139        3.2194857594       20.0289519506
  C         5.7072784340        1.7598544640       18.6290707854
  H        11.1419817887        2.8765852934       22.4929140253
  H        11.4422518012        3.4917221050       20.9374217129
  C        12.5940769477        1.7736835053       21.4237040348
  C         9.9335780332        7.6738304436       17.1035797202
  C        10.3823654512        5.4307874619       16.0984627711
  H         3.8742942336        5.2871674189       28.6731133302
  H         3.1958398073        6.8252737636       28.7744981674
  C         2.5276161276        5.5559018052       30.4406876099
  H         5.2767743306       -1.4517832698       32.6268816050
  C         4.5343699051        0.0442979373       33.8688904068
  H         5.1911141049        1.2914945723       19.5333138169
  H         6.1532733341        1.0212378885       17.9222960118
  C         4.7635587207        2.6692991478       17.8306734503
  H        12.6324421973        1.2057540734       22.3745641173
  H        12.3891463707        0.9675904574       20.7719918967
  C        13.8551289909        2.6657724782       21.1091718607
  N         9.5954083421        8.6251087903       18.0862296750
  C        10.3101844826        8.2962070981       15.8915688911
  C        10.5905181780        6.0638812546       14.8594564128
  H        10.4716534991        4.3922945414       16.0910320084
  H         2.5761900672        6.4842458199       30.9050979878
  H         1.4375627707        5.3571236852       30.4671894744
  H         2.9463205325        4.6826299686       30.9114965155
  S         4.1195981929        1.6803931935       34.2658113537
  C         4.5223210557       -0.8806874497       35.0187730682
  H         4.4713591872        3.3543945364       18.6131669353
  H         5.1682026733        3.2228898251       16.9785157981
  C         3.4546139166        1.9350622358       17.4215792994
  H        13.5038289213        3.5652803406       20.6258942702
  H        14.3799330591        2.0595151816       20.3407403102
  C        14.6828326882        3.0689000234       22.3112122653
  S         9.7477884266       10.1333085122       17.4736730409
  N        10.3212355581        9.6513787885       16.0182277620
  C        10.6173363826        7.5388723101       14.7242013480
  H        10.7921516919        5.4542010433       14.0024453133
  C         4.0289325384        1.1302540831       35.9371242748
  N         4.1236695613       -0.2204738550       36.1511194419
  O         4.6938347092       -2.0827878187       34.9040025630
  H         2.7928516881        2.6005949509       16.7256578431
  H         2.8737717651        1.6829290180       18.3159662282
  C         3.5720400228        0.5899647978       16.6583091833
  H        15.5288460208        3.6631710070       22.0257139043
  H        14.0629273567        3.5046309434       23.0716765220
  C        15.3344620101        1.8399441639       23.0218212041
  C        10.8785998650        8.2374129777       13.4528382722
  S         3.6116613370        2.0728849145       37.2613541521
  C         4.1245887200       -0.8477800809       37.4125491675
  H         2.7303377483        0.5364744529       16.0062170395
  H         4.4903847957        0.4748265440       16.1570922710
  C         3.2965606138       -0.6000947627       17.5855997590
  H        15.4986488661        1.0023767412       22.3002984266
  H        14.6998523870        1.3687701084       23.8007463821
  C        16.6422068854        2.2860291346       23.7009600561
  H        10.4949968973        9.1614397925       13.4820205675
  C        11.3450385598        7.8716463820       12.2025193967
  H         3.3893902469       -0.4560732986       38.0905670582
  H         3.7169597694       -1.8645061465       37.2569249087
  C         5.4757956492       -0.9224946048       38.1073153969
  H         3.7561124478       -0.3654488345       18.5594587709
  H         3.8732090038       -1.4953435391       17.1955251676
  C         1.7723090385       -0.9563845591       17.7094631966
  H        16.4241455382        3.1444309234       24.3540546274
  H        16.8013608081        1.4179643701       24.3689658473
  C        17.6567319565        2.3737461165       22.5806843826
  S        12.2318481962        6.4699008016       11.8045375494
  C        11.1706261279        8.8537939826       11.0925120853
  H         6.2499033533       -0.9872906542       37.3883819509
  H         5.6632355634       -0.0599522257       38.7111019163
  H         5.5738150553       -1.7420706581       38.7806335189
  H         1.5841723344       -1.6775151028       18.4745850703
  H         1.4192103281       -1.2100423282       16.6920843044
  H         1.2539504752       -0.0431332959       18.0321293305
  H        17.9699970984        1.3402164872       22.3580685223
  H        18.5342631705        2.8565436129       22.9503485559
  H        17.3417149843        2.8940453736       21.7165073012
  C        12.1828219189        7.0234544742       10.1485197899
  N        11.8186855013        8.3274899045       10.0247415374
  O        10.6799645568        9.9725242444       11.2895897615
  S        12.7383060486        6.1879048873        8.6596662603
  C        11.9482625217        9.1350871707        8.8346434854
  H        12.1538782695       10.1376766684        9.1775084214
  H        12.7471368582        8.8076193837        8.2754721315
  C        10.6446645418        9.2145021448        7.9184740714
  H         9.7747816229        9.6694737679        8.3099654014
  H        10.8398450229        9.6706675923        7.0192555846
  H        10.3057381788        8.2428773824        7.6589300852
  H        -1.0665760166       13.5380832287       16.3922690066
  C        -2.1236403266       13.8548659641       16.4434293720
  H        -2.1938611440       14.9762614336       16.6233212374
  C        -2.6900949725       13.1011437174       17.6896860256
  C        -2.8077346693       13.5734033614       15.1114520795
  C        -2.3408876618       13.8278778297       18.9665764000
  H        -3.8008028703       12.8654163722       17.8099470159
  H        -2.0956612753       12.1964150704       17.5303865732
  H        -2.0515228928       13.6033005966       14.2852774446
  H        -3.3189410499       12.6153426817       15.0027049969
  H        -3.5130463605       14.3814180346       14.8131691938
  C        -2.5607377228       12.8312221657       20.1291554518
  H        -3.0608915160       14.7090616212       19.0103983384
  H        -1.3833166102       14.3588367697       18.9710229085
  C        -2.7366305281       13.4204906280       21.5084858659
  H        -3.3292146820       12.0851401475       20.0159346258
  H        -1.8125681360       12.0388042201       20.1795649039
  C        -1.6250591131       12.8698680674       22.4486137859
  H        -3.7499070388       13.1725011692       21.7823434871
  H        -2.6155862168       14.4829745136       21.3226503496
  C        -0.2971900477       13.6645140902       22.5481507050
  H        -1.8974708674       12.8721252093       23.4664876075
  H        -1.3987760360       11.8222278294       22.2440342515
  C         0.9441412151       12.9581219124       23.1983968863
  H        -0.0648681568       13.9767585167       21.5316101789
  H        -0.4704698866       14.6359925436       23.1347681767
  C         1.2491413893       11.5792998821       22.4972143693
  C         0.6111155518       12.2584123276       24.4834302529
  C         2.2415713031       13.8556074990       23.3464480938
  C         1.1052425633       10.4918830929       23.3417686655
  C         1.7263479067       11.2332462758       21.2586279243
  C         0.7052957816       10.9407611032       24.5888740319
  C         0.2824268710       12.9724958750       25.6074090016
  H         2.5196261031       13.8425965914       22.2503039352
  H         1.9892080073       14.8694911520       23.6063537837
  C         3.4211287893       13.3277543552       24.0961712915
  S         1.5976204705        8.9888060105       22.6680157786
  C         1.9439758241        9.8525909957       21.1637137877
  H         1.8567570995       11.9422431117       20.4255046296
  C         0.4271603569       10.4035824392       25.8153566923
  H         0.2588797738       14.0492889246       25.4375876652
  C         0.0122009342       12.4166162020       26.8168454416
  H         3.7264768236       12.3247801696       23.6924443017
  H         3.1420857098       13.0530460357       25.1077909653
  C         4.6623887954       14.1722149135       24.0823521667
  C         2.4117041539        9.1392494920       19.9479615667
  C         0.0787740249       11.0402421076       26.9866403295
  H         0.6364278523        9.3589889332       25.8568495274
  C        -0.4665345708       12.8463556340       28.0464019148
  H         5.2542789179       13.6253638750       24.8100411599
  H         4.4877200454       15.1348984798       24.5994850082
  C         5.3838701902       14.2724797642       22.7096171771
  C         2.4861144189        7.7272111142       19.7218071808
  C         2.6692901801       10.0002941795       18.7505783415
  C        -0.3974607580       10.3555180083       28.2672233053
  C        -0.7354397540       11.7254502826       28.8463890859
  S        -0.9740663345       14.2820796204       28.8071304310
  H         6.3196997420       14.7667884705       22.8774899286
  H         4.8132827532       14.9628540111       22.0827618514
  C         5.8095640134       12.9560685866       21.9703210585
  N         2.3588806772        6.6959642361       20.6622278174
  C         2.6656939523        7.2068399127       18.4302177794
  C         2.8173072796        9.4968666316       17.4569552985
  H         2.6323281297       11.0707586018       18.8596590142
  C         0.7564653079        9.6995092872       29.1344994846
  C        -1.6650432223        9.4324840428       27.9546399671
  C        -1.2689047237       12.0896540839       30.1030533410
  C        -1.4088448271       13.4137807396       30.2615251409
  H         5.7439874339       12.0670894060       22.6454262150
  H         5.1239006398       12.6124287156       21.2025678275
  C         7.2095359154       12.9783305200       21.2264871772
  S         2.3935206942        5.2814753150       19.8993394946
  N         2.7030867097        5.8506554550       18.4278902068
  C         2.8651872949        8.0321420569       17.2745063086
  H         3.0893859599       10.2210107627       16.7326815384
  H         1.0078451436        8.7639541777       28.6472831013
  H         0.3425749108        9.5286776156       30.1942076426
  C         2.0526483143       10.3925640651       29.1786261942
  H        -1.3920130534        8.7072437064       27.2589423597
  H        -1.9139427260        8.9211916129       28.8771814159
  C        -2.9542634873       10.1391008152       27.4602263071
  H        -1.3566834143       11.3945327347       30.8547979998
  C        -1.7363092731       14.1270709923       31.5375145840
  H         7.3497629027       12.0043733145       20.7290232675
  H         8.0653422877       13.0108874913       21.9188347778
  C         7.1438466522       14.1046271978       20.2077361956
  C         3.2876948866        7.4130654677       16.0464430008
  H         2.5233755033       10.5054832793       28.2237257432
  H         1.7414205690       11.4214298532       29.4754869675
  C         3.0972259885        9.8353580753       30.1100064331
  H        -2.6760103679       10.6929348223       26.5405793891
  H        -3.2078045328       10.8703066647       28.2018652469
  C        -4.0574701914        9.1966737033       27.0876221783
  C        -1.7848151036       15.5425525417       31.6483065721
  C        -2.0649347097       13.3950851894       32.8227883429
  H         6.3225599284       14.7606550655       20.5197487186
  H         8.0208643245       14.7014983544       20.2363991947
  C         6.7670734534       13.6657770387       18.7189768600
  H         3.3817203673        6.3965329341       16.2510488348
  C         3.6459748468        7.8322630619       14.8354304841
  H         3.7395170358        9.1843726715       29.5575841160
  H         2.5525427102        9.2678834236       30.8449705894
  C         4.0190489453       10.8188789700       30.7555534535
  H        -3.7504015316        8.6721259557       26.1724218366
  H        -4.1082394463        8.4869011196       27.9168449348
  C        -5.4397015802        9.7917495909       26.9804451639
  N        -1.4196440429       16.4849540507       30.6438737147
  C        -2.1632956429       16.2110775451       32.8517667187
  C        -2.3406216324       14.0580668463       34.0168971315
  H        -2.1244518187       12.2385649867       32.7492334899
  H         7.3969937640       12.9683898733       18.2279765251
  H         5.8470395710       13.0376857277       18.7799296824
  H         6.6727523742       14.5367385918       18.1057915475
  S         3.8973778256        9.4339015980       14.3084439852
  C         3.7155218004        6.7696813786       13.9034933833
  H         4.1965882832       11.7214986047       30.1105111267
  H         3.6213753064       11.1854033894       31.6848540252
  C         5.4031175355       10.2931225613       31.0243368414
  H        -5.5202382755       10.7780703428       27.4870462168
  H        -6.1981236510        9.1972324580       27.4950781342
  C        -5.9873112524        9.7809775694       25.5288052233
  S        -1.5701749170       18.0100201660       31.2671274034
  N        -1.9921654874       17.6231274325       32.7957375740
  C        -2.4275846116       15.5651442689       34.0647669573
  H        -2.6310879530       13.5499893562       34.8912950624
  C         3.9759154692        8.6831911229       12.7468833566
  N         3.9079267129        7.3043015873       12.7082169611
  O         3.5754315375        5.5825876950       14.1387079571
  H         5.9643566305       11.0672005018       31.6128568935
  H         5.9426108533       10.1613566459       30.0969370789
  C         5.4325671782        9.0453920881       31.8658833184
  H        -5.2960760315       10.3372872858       24.8449976879
  H        -6.0836138743        8.7290327252       25.2300034930
  C        -7.3899643334       10.4163552567       25.4656720554
  C        -2.6975128594       16.3260769693       35.2403933187
  S         4.3343662891        9.4638993812       11.2593719787
  C         3.8136311233        6.4950729164       11.5218701295
  H         6.1348570449        9.2121631534       32.7269817418
  H         4.4493957993        8.8471623743       32.3103777949
  C         5.9616529450        7.8445123769       31.0615447255
  H        -7.6232795270       10.4623343778       24.3838860247
  H        -7.2980933587       11.4029571327       25.8800049407
  C        -8.4765566374        9.5733769119       26.1550271387
  H        -2.3918767060       17.2990303979       35.1120813277
  C        -3.2942644517       16.1268220697       36.4678700570
  H         4.5553918160        6.8615118507       10.7386981710
  H         4.1623062895        5.4690637034       11.8201775885
  C         2.3993522175        6.3495413281       11.0188871841
  H         6.7358828380        8.0773248890       30.3144495068
  H         5.0087395796        7.3714550018       30.6534564708
  C         6.6509829698        6.7787473896       32.0355529695
  H        -8.3529879428        8.5321473861       25.8713988754
  H        -8.4222564808        9.6543349986       27.2927009378
  C        -9.8934267633        9.9703441443       25.8282496723
  S        -4.0792506788       14.6213441969       36.8848188377
  C        -3.1742873830       17.1018205033       37.6023458461
  H         2.0518249819        7.2281545511       10.5526040375
  H         2.2715222392        5.4813773690       10.3344373576
  H         1.8490762536        6.1489763988       11.9255542923
  H         7.5377484092        7.2572182268       32.3698623356
  H         6.9128405470        5.7544128282       31.6425971031
  H         6.1759925712        6.5768541720       32.9796384826
  H       -10.6162152927        9.3773468550       26.3430208444
  H        -9.9665377258       10.0317523188       24.7338616166
  H        -9.9869539208       11.0114327923       25.9520922891
  C        -4.3871248404       15.3826902087       38.4006261971
  N        -3.8658782372       16.6009149093       38.6534863932
  O        -2.6115008103       18.1990995565       37.5928779849
  S        -5.0613010920       14.5585232516       39.8364900935
  C        -3.8636107742       17.3890463017       39.9449173437
  H        -3.8969998101       18.4754535316       39.6915950248
  H        -4.7715666230       17.0102995859       40.4630311465
  C        -2.6719115260       17.1593416261       40.8215317453
  H        -1.8703008103       16.7666209161       40.1923350479
  H        -2.3066487615       18.1022673226       41.1407979082
  H        -2.8802464665       16.3801162094       41.5229095566
