352
 i =    86700, time =    86700.000, E =        25.1199682205
  H         9.9566488520        6.7464057191       31.9762297450
  C        10.9962238593        6.3961619609       32.1745658808
  H        11.5259059180        7.3429251988       32.4651785744
  C        11.6992923609        5.9195254117       30.9657906791
  C        11.0223374461        5.5031402312       33.3983645733
  C        10.7722112052        5.4323166608       29.8374118085
  H        12.2226609878        6.8027220258       30.5304304916
  H        12.4034808270        5.1611785378       31.1418339728
  H        10.5778651517        6.0831215009       34.2103373795
  H        10.4926060958        4.5403360489       33.3417386875
  H        12.0354817611        5.2694354013       33.7753477549
  C        10.3081408210        6.4485154806       28.8444221138
  H         9.9343066408        4.8668836371       30.1767880669
  H        11.3844516993        4.7890761973       29.2620598596
  C        10.6814852160        6.0533710236       27.3590224074
  H         9.2173028910        6.6641032263       28.8751113895
  H        10.7200871461        7.3260573778       29.0840109251
  C         9.5687338788        5.1688034839       26.7142540186
  H        11.7145895773        5.5980778104       27.2055527819
  H        10.7676048323        6.9309701849       26.7750711434
  C         8.3040166889        5.9543019782       26.3578462003
  H        10.0279614873        4.6791221178       25.9151106109
  H         9.2755851381        4.4194323656       27.4932896492
  C         7.2557816194        5.0065341094       25.6332972808
  H         7.7240571712        6.3180005123       27.2306451548
  H         8.5546532546        6.7584946517       25.6669530502
  C         6.9948491023        3.7128603035       26.2537213817
  C         7.8053803612        4.3399969136       24.3986904025
  C         5.9236738010        5.6642100787       25.2498140355
  C         7.2718453601        2.6355481142       25.4574425686
  C         6.6208604278        3.3021484994       27.5338018508
  C         7.8796665979        3.0371579078       24.2693101276
  C         8.2152161713        5.0907388867       23.3254961687
  H         5.4003432502        4.9340744575       24.5120023030
  H         6.1666996638        6.4680951878       24.6237318190
  C         4.8967296536        6.0373747218       26.3210392976
  S         7.0142857070        1.1473033769       26.2195742302
  C         6.6498063162        1.9534617794       27.6785877260
  H         6.6014523363        4.0005973940       28.3421601326
  C         8.3196228029        2.4952465209       23.1170668065
  H         8.1869466984        6.1223271408       23.4263507865
  C         8.5580114543        4.5650590152       22.1038748770
  H         5.0419081948        5.4505474498       27.2082065949
  H         5.1136482932        7.0214575864       26.5767720938
  C         3.4205781244        5.9580451690       25.9774694273
  C         6.2584272868        1.3195773107       28.9182264093
  C         8.6341176616        3.2278229255       21.9532617939
  H         8.3035227822        1.3997314823       23.1336435343
  C         8.9763279843        5.0230269477       20.8965686620
  H         3.1916023805        4.9189245512       25.8224599797
  H         3.2125399570        6.4749178214       25.0358865595
  C         2.5646239522        6.4787642388       27.1413489064
  C         6.1886652560       -0.0874370158       29.2053628427
  C         5.9207940236        2.1940877180       30.0887774245
  C         9.0291029108        2.5708806893       20.6938012815
  C         9.2433548315        3.9729840292       20.0127084722
  S         9.1266870501        6.5487317229       20.1471798306
  H         1.6310457670        6.9838248569       26.7220569264
  H         3.0193890919        7.3313263104       27.7167182209
  C         2.3734329611        5.3264376200       28.1873259402
  N         6.5842718478       -1.1437942576       28.3720703463
  C         5.8478706338       -0.6184536870       30.4708490249
  C         5.4743581863        1.6862136001       31.2701272761
  H         5.9898565111        3.2359214634       29.9350544412
  C         7.8924801695        1.7684473523       20.0150573713
  C        10.3299247177        1.7076934057       20.7624676535
  C         9.7041772408        4.4173147921       18.7580066484
  C         9.6149036942        5.7769876785       18.6417788621
  H         2.0241662260        4.4641941309       27.6395468502
  H         3.3601436291        4.9364693597       28.5978068670
  C         1.4099530713        5.7149610582       29.2722260129
  S         6.2928674019       -2.5838078449       29.1270841589
  N         5.8556422152       -2.0227402130       30.5937495412
  C         5.5563470467        0.2444226169       31.5741122795
  H         5.3132780272        2.3157156375       32.1318040619
  H         7.6265092074        0.8704040720       20.6225137701
  H         8.0543718395        1.2556381431       19.0573298896
  C         6.6876040061        2.6830412009       19.7487304750
  H        10.6978128898        1.3481134600       19.7755765208
  H         9.9550078850        0.7666987546       21.2544460738
  C        11.5655485355        2.3764188388       21.4385293037
  H        10.0826878567        3.7420053711       18.0167345920
  C         9.9908405834        6.4754005708       17.4117553491
  H         0.6761337288        5.0087640154       29.4741777662
  H         0.7577598766        6.6052161786       29.1381164946
  C         2.2155746137        5.8517035637       30.5681943911
  C         5.4358174766       -0.3563223613       32.8894393608
  H         6.9314491705        3.2356090230       18.7965772093
  H         6.4283017216        3.3243180937       20.6342219758
  C         5.4407457201        1.8849262187       19.4049412874
  H        11.4410010013        2.7327424677       22.4411272712
  H        11.8462309091        3.2200374203       20.7570970127
  C        12.7805120062        1.4699997948       21.3941262637
  C        10.1804899682        7.8932644664       17.3013971216
  C        10.2574345876        5.7434690818       16.1304013210
  H         3.2055379473        6.3022656377       30.3160783258
  H         1.6961835911        6.5717841191       31.1794582850
  C         2.5015482362        4.5948465450       31.3888317465
  H         5.5226915235       -1.3911389252       32.9697780110
  C         5.0374106006        0.1403837871       34.0930557706
  H         4.9484749379        1.5160974861       20.2742411734
  H         5.7467575283        1.0284373360       18.8821921971
  C         4.5361149839        2.7078839144       18.3946521434
  H        12.6323553418        0.7487359711       22.1933212116
  H        12.8417883109        0.8767056754       20.4600373873
  C        14.0286801075        2.2228173301       21.7294041312
  N         9.8825450345        8.8606452903       18.2809562626
  C        10.7869423582        8.4886348391       16.1508203079
  C        10.7730668437        6.3707197338       14.9384660728
  H        10.2248120692        4.6363523695       16.0318046898
  H         3.1011843995        4.8850885803       32.2958738945
  H         1.6347152166        4.0188743544       31.6633263330
  H         3.0782736356        3.9370879656       30.7749708986
  S         4.4057847981        1.6840414814       34.4714820966
  C         5.0461514018       -0.8231767778       35.2577088617
  H         4.4840825010        3.7146869512       18.8014920189
  H         5.1603619829        2.9262994644       17.4374283712
  C         3.1428447476        2.2812280817       18.1863819171
  H        13.7030611461        3.0806510471       22.2958819967
  H        14.5298638978        2.4956615060       20.8280771228
  C        14.9038462514        1.5550274739       22.7088075462
  S        10.3781754317       10.3596199520       17.7204084947
  N        10.8155009902        9.8968531018       16.2686474281
  C        11.1193948303        7.8210334479       14.9479089769
  H        10.7304689541        5.7472799862       13.9902778077
  C         4.2046146388        1.1071485045       36.1632336232
  N         4.6148311457       -0.2179458204       36.3479993713
  O         5.3586265446       -1.9877063588       35.1827298017
  H         2.5816525204        2.9709053583       17.6103641858
  H         2.6324811308        2.0962588176       19.1142319283
  C         3.0711895506        0.9079094137       17.3988770523
  H        14.3555269775        1.0685187967       23.5035492705
  H        15.4570048187        0.7385409620       22.1751901981
  C        16.0650368730        2.3853950331       23.3905914911
  C        11.5445659037        8.6145335058       13.8281575910
  S         3.5157083426        2.0520255556       37.4995368739
  C         4.6100874485       -0.9679778625       37.5268786372
  H         2.0912719368        1.0179104881       16.8972272847
  H         3.8886954590        0.7488399099       16.6651172427
  C         2.9699873043       -0.4255344621       18.2378667178
  H        15.7658065827        2.5866800095       24.4045293025
  H        16.2075289328        3.3769921807       22.8748110495
  C        17.3883351720        1.6068061083       23.3682572618
  H        11.3272541994        9.6508065434       13.8798115235
  C        11.9948869467        8.2906830521       12.5995664653
  H         3.8895677016       -0.5893363110       38.1504056441
  H         4.4019069794       -1.9694990905       37.4320556364
  C         6.0210707940       -0.8696205636       38.1411178203
  H         2.0333140595       -0.4763201491       18.7303662616
  H         3.6545823913       -0.4519374622       19.0769989802
  C         2.9760885061       -1.7223374810       17.3668719699
  H        17.9071919469        1.7874229091       24.3388424111
  H        17.2190546421        0.4998248070       23.3562489324
  C        18.3000178297        1.9864303076       22.2432658905
  S        12.3369035836        6.6946783605       12.0138489960
  C        12.0712197663        9.3280109895       11.5467650371
  H         6.2617001267        0.1885003652       38.2496944697
  H         6.0618582233       -1.3097835401       39.0602207665
  H         6.7950267285       -1.2816745420       37.5330702816
  H         2.2507800602       -2.5408014348       17.6126972607
  H         4.0074387669       -2.1516403743       17.2480173596
  H         2.5991339549       -1.4248799941       16.3522397723
  H        17.9072298238        2.6289349319       21.4244981073
  H        18.7737779092        1.0871567921       21.8373986363
  H        19.1087987945        2.6078315378       22.6402597077
  C        12.6787253645        7.4232943134       10.4064301197
  N        12.5329390968        8.7979812870       10.4172868558
  O        11.7314349190       10.4779346591       11.6712812324
  S        13.1398232709        6.6522343259        8.9336963946
  C        12.4773081077        9.6834116369        9.2773451586
  H        12.9353117266       10.6474810659        9.5222963398
  H        13.1995801457        9.1660254044        8.6376623196
  C        10.9772124641        9.8296241728        8.7365070376
  H        10.3533512906       10.3563610512        9.4226495371
  H        10.9720053038       10.3615227097        7.8225348655
  H        10.6133316191        8.8783761926        8.4262569946
  H        -3.6939766466       14.7414563478       15.6691554127
  C        -3.0968442515       13.8433561736       15.7246453359
  H        -3.7932464115       13.1881738813       16.1303940632
  C        -1.9351771876       13.8937671335       16.8246350787
  C        -2.3940542143       13.4851644221       14.3435080651
  C        -2.4222751705       14.0755737736       18.2370167087
  H        -1.4426747674       12.9318217706       16.7938621417
  H        -1.1317991887       14.5287831738       16.6054292185
  H        -1.3727995681       13.8944917562       14.1682760401
  H        -2.2712639629       12.4405689481       14.4456169775
  H        -3.1312188115       13.7223557285       13.5469913388
  C        -1.3378054058       13.6992806816       19.3264547918
  H        -3.2925605387       13.4668245214       18.4739332298
  H        -2.7920400190       15.1075754493       18.3997368199
  C        -1.9272674643       13.8708419469       20.7795278102
  H        -0.8922882372       12.7304998399       19.2640286457
  H        -0.4679709087       14.3273514168       19.2725064447
  C        -1.1168511087       13.1767651713       21.8750987736
  H        -2.9126793649       13.3772779950       20.7124407380
  H        -2.0818763991       14.9031765022       20.9635008620
  C        -0.0275119952       14.0624347462       22.5119423523
  H        -1.8009665006       12.7577390340       22.5925694542
  H        -0.6902633835       12.2920797232       21.4044410488
  C         1.1333834863       13.1197215144       23.1388797871
  H         0.4107717516       14.6990970960       21.7491718383
  H        -0.4433832984       14.7355536087       23.2702381028
  C         1.5484438056       11.7821065884       22.5305636974
  C         0.6192870215       12.3879946029       24.4366148517
  C         2.4068509501       13.9413313872       23.2683598576
  C         1.1223246476       10.6885237273       23.2829489971
  C         2.1846698602       11.4143528726       21.3249786795
  C         0.6271876319       11.0404379479       24.5078448899
  C         0.3613466484       12.9903699086       25.6823036493
  H         2.6256715306       14.4932528834       22.3992665713
  H         2.1478756988       14.8419392203       23.9907611784
  C         3.6985235753       13.3154827231       23.7967957155
  S         1.4398452489        9.2032617113       22.4202789016
  C         2.1822627151       10.0812890903       21.1195748786
  H         2.4957916986       12.2639267030       20.6107353593
  C         0.2607510075       10.4107857549       25.6873239905
  H         0.5510503376       14.0011280170       25.6561677178
  C        -0.0158497219       12.4166269049       26.8395822585
  H         3.9836121099       12.4586002163       23.1821337465
  H         3.5143441772       12.9924422471       24.8168343287
  C         4.9134638078       14.3417452822       23.8343036863
  C         2.6867588379        9.4708212498       19.8815271106
  C        -0.0002699294       11.0455537956       26.8428639771
  H         0.2754296552        9.3904559944       25.5801487471
  C        -0.3199766744       12.7170454110       28.1844322821
  H         5.6368518903       13.9432919364       24.4325117865
  H         4.7516405552       15.3428864733       24.3103068609
  C         5.5047961842       14.4816313391       22.4743739476
  C         2.6913725967        8.0838377491       19.5299718822
  C         3.1794081834       10.3911640352       18.8053591164
  C        -0.2677523014       10.2873328538       28.1514336310
  C        -0.6485182704       11.5822156746       28.9350436227
  S        -0.5913643858       14.1968869644       28.9814783680
  H         5.8934854132       15.5324556779       22.3478737747
  H         4.7554248465       14.3315813124       21.6868017242
  C         6.5424777712       13.3935768234       22.2612985132
  N         2.2921790387        7.0417480869       20.3354775139
  C         3.0458403069        7.6288360208       18.2508895055
  C         3.3896921789        9.9266525995       17.5148871201
  H         3.1837652215       11.4657870369       18.9801827487
  C         0.9594156834        9.5405296980       28.8162440596
  C        -1.5222246624        9.4029034650       28.1158632367
  C        -1.0171177581       11.9555574335       30.2290053153
  C        -0.9719667300       13.2962144696       30.4147558984
  H         7.1505279110       13.4626313889       23.1471776636
  H         6.2031035907       12.3794457769       22.2163529697
  C         7.5504581203       13.5857433364       21.1361820063
  S         2.3304099065        5.6707058942       19.6074856820
  N         2.8958723420        6.2512411851       18.1653858606
  C         3.3242501315        8.5079739170       17.1814308027
  H         3.5369259736       10.6187099287       16.7590517264
  H         1.3497063047        8.7937692626       28.1355014660
  H         0.5413371044        9.0272100835       29.6839973883
  C         2.0961075055       10.3832873473       29.2412777866
  H        -1.2488373766        8.5875714860       27.4671011699
  H        -1.6160550682        8.8690359366       29.0785092208
  C        -2.8352003224       10.0713728934       27.9029853013
  H        -1.2312488104       11.1523646940       30.9499186999
  C        -1.2991736921       14.0379089214       31.7188494456
  H         8.2897388021       12.7961401401       21.1425203681
  H         8.0884656202       14.4430618349       21.3955596848
  C         6.8637943616       13.8466955863       19.7733300617
  C         3.5197705226        7.9169326696       15.8977326977
  H         2.6486456173       11.0842146010       28.6217430120
  H         1.6022811464       11.0808496289       29.8942903717
  C         3.1280518689        9.5951551616       30.0160191224
  H        -2.7031919600       10.8170542776       27.1217123468
  H        -3.2584161012       10.5230466769       28.7965833149
  C        -3.8973031078        9.1983604783       27.4886219574
  C        -1.4141099919       15.4694614809       31.9067105480
  C        -1.3024153976       13.2993217039       32.9909117430
  H         5.9196221842       13.2689942878       19.7310547121
  H         6.7094748850       14.8964927162       19.7034354446
  C         7.7462356152       13.4829231067       18.5459887915
  H         3.5166264583        6.7914342580       15.8447247467
  C         3.9868940827        8.3827968554       14.7109092545
  H         2.9909783056        8.5346647101       29.7530936597
  H         2.7147442540        9.7471622851       31.0575117253
  C         4.5302242373       10.1268173893       29.8343517659
  H        -3.6129437328        8.6649264563       26.6156813048
  H        -4.0708113167        8.5960980423       28.3586216058
  C        -5.1372368807       10.0218929868       27.2110371138
  N        -1.1490074864       16.3851745174       30.9279130695
  C        -1.8632837480       16.0734562752       33.0126595602
  C        -1.7133592026       13.8885823656       34.1316893654
  H        -1.0363626812       12.3225174684       33.0415846840
  H         8.2303802662       14.3476669752       18.0989424566
  H         8.6097989967       12.7682903279       18.7718762227
  H         7.0931554556       13.1294037311       17.8122569561
  S         4.4292788341        9.9649780980       14.3704291432
  C         4.2071026735        7.4325984209       13.5728871159
  H         4.8091732502       10.3443088679       28.8160209877
  H         4.5759818231       11.0882035340       30.3100533980
  C         5.5640179078        9.1562602449       30.5045109216
  H        -5.1215939021       11.0339377594       27.6429736359
  H        -5.9294889675        9.3355406893       27.5908412151
  C        -5.3299969173       10.2287493720       25.7118094770
  S        -1.3395743678       17.8963071327       31.4827748542
  N        -1.9612699182       17.4770010982       32.9384174282
  C        -2.1362338648       15.3477653698       34.1734166924
  H        -1.7064416798       13.3344714737       35.1186122367
  C         4.9416240439        9.3900077142       12.8536410829
  N         4.7842736818        8.0728157663       12.5846703298
  O         3.9951232967        6.1917200861       13.5852459293
  H         5.1673112473        8.8951029569       31.4832432634
  H         6.4058357432        9.6639525553       30.8235092081
  C         5.9132607894        8.0194354586       29.5579108870
  H        -4.3919839793       10.4236846337       25.2019417607
  H        -5.5938479428        9.2389856499       25.2771048809
  C        -6.4493861709       11.2873818902       25.3047492580
  C        -2.4896016467       16.0759632076       35.3644231604
  S         5.1920470072       10.5127164897       11.4871732603
  C         4.8362856849        7.4773852605       11.2455333896
  H         5.1616776357        7.8403937882       28.7977997021
  H         6.7796253560        8.4643759613       29.0135744329
  C         6.0633083101        6.7398507690       30.4586957050
  H        -6.3943465113       11.4608301357       24.2835121872
  H        -6.2355496833       12.1939206314       25.7969761380
  C        -7.8587181341       10.8156035567       25.7182389126
  H        -2.6271860312       17.1455762847       35.2769485409
  C        -3.0507836562       15.6407499948       36.5624900811
  H         5.6252498464        8.0501977210       10.6117449589
  H         5.2669055002        6.5015424304       11.3904257795
  C         3.4629243020        7.4733192284       10.5700742914
  H         6.0532394887        5.7848096264       29.9327457581
  H         5.2419513646        6.7234526203       31.1253414112
  C         7.2404852116        6.7960979790       31.4402179659
  H        -7.9263102215       10.1265831070       26.5562428371
  H        -8.5786018883       11.6240718495       25.9828258410
  C        -8.4792662860        9.9951893246       24.6584318547
  S        -3.6624371853       14.0054459229       36.9167718216
  C        -3.2093770323       16.6566519145       37.6021712807
  H         3.4275777070        8.4259089061        9.9732534801
  H         3.2016531464        6.6584820896        9.8694385297
  H         2.6333691341        7.5708582015       11.2650683251
  H         7.7092020308        5.7980934259       31.4328554328
  H         6.7909046333        6.9196133227       32.4397183140
  H         8.0032176882        7.5539259993       31.1353248697
  H        -9.5053915177        9.8097689905       24.9991651503
  H        -8.0766972834        9.0959037453       24.6158104526
  H        -8.5437538275       10.4544408067       23.6166911096
  C        -4.0665379094       14.7716282421       38.5037332567
  N        -3.8888113641       16.1120472200       38.6632579815
  O        -2.8220343910       17.8513475239       37.5204114408
  S        -4.8857870097       13.8029105097       39.8571297861
  C        -4.1475477053       16.8411365997       39.8745560371
  H        -4.1597490657       17.9349768338       39.7298134816
  H        -5.1828839776       16.6452480329       40.2587578202
  C        -3.0813671893       16.4111225739       40.8656764082
  H        -3.6110441858       16.0960100905       41.7288776138
  H        -2.3541058824       15.5781751190       40.6564318361
  H        -2.5577886920       17.2899820322       41.1795490713
