352
 i =    26800, time =    26800.000, E =        24.8812626177
  H        12.1100265904        6.8341229411       32.3291431540
  C        11.8762965050        5.8311492057       32.4558681024
  H        12.7626249682        5.2109947750       32.4387600498
  C        10.8824131328        5.4816218518       31.3755242913
  C        11.2172880978        5.6782592945       33.8272552805
  C        11.2411787086        5.9288302230       29.9382193633
  H        10.6557200070        4.4384873119       31.5001609033
  H         9.9753820633        6.0104201669       31.7014984522
  H        10.0902999540        5.7338599543       33.6475177419
  H        11.3078614386        4.6656955336       34.2359891129
  H        11.3224271530        6.5010239720       34.5879016547
  C        10.4455526089        5.3208100780       28.8313007220
  H        12.3114944556        5.6413009836       29.8461815677
  H        11.2837070161        7.0476281081       29.6982695817
  C        10.9102338968        5.7627714620       27.4817723627
  H        10.4513309070        4.2488904788       28.9498604923
  H         9.4084087730        5.5445124253       28.8832143917
  C        10.0484333258        5.1334210616       26.3429630188
  H        11.9527330763        5.4110199362       27.4471165590
  H        10.9732223124        6.8716843489       27.4406695980
  C         8.7165311212        5.9700902038       26.1492310795
  H        10.7383963930        5.1148244606       25.5069982143
  H         9.8112607267        4.0809218610       26.4774346524
  C         7.6427854875        5.2656377563       25.3651720339
  H         8.3127962281        6.0688097645       27.1174306178
  H         8.8876889972        7.0166553251       25.8354833909
  C         7.3215157650        3.8696026159       25.9828121858
  C         8.0766911026        4.5427490224       24.0711928895
  C         6.3733055800        6.1089988318       25.2439056595
  C         7.5738014902        2.8098040512       25.1058939869
  C         6.8248629927        3.5552011451       27.2652615072
  C         8.0378590943        3.2376848740       23.8936171417
  C         8.5012949226        5.2657425239       22.9372937165
  H         6.6181186578        7.1009615488       24.7945469244
  H         6.0578954369        6.2046092548       26.2814389164
  C         5.2260680155        5.4013297534       24.5426358282
  S         7.2700072560        1.3782037371       25.9513410655
  C         6.6147889906        2.2386631186       27.3258788607
  H         6.6063699864        4.3776916342       27.9139560916
  C         8.3626101705        2.6672143389       22.6776092567
  H         8.7298474637        6.3126215076       22.9402866692
  C         8.9129455830        4.7046773955       21.7638618111
  H         5.3632001531        5.1160188462       23.5214405877
  H         5.0633035741        4.4796119405       25.0787727522
  C         3.9758225952        6.2920779019       24.7514122904
  C         6.0986068732        1.5339368465       28.5791500989
  C         8.7822926273        3.3769886461       21.5624547518
  H         8.3398286554        1.5815745206       22.5989474833
  C         9.1706458229        5.1704614818       20.4817650388
  H         3.2391684140        5.9631952305       23.9892112825
  H         4.1747477141        7.3289478943       24.4618691611
  C         3.2658055224        6.3128088638       26.1468919151
  C         6.1342532109        0.1372484869       28.8046373103
  C         5.5287594633        2.3081552978       29.7214442612
  C         9.1053234999        2.7280940481       20.3285919199
  C         9.3097002024        4.0669774139       19.6291569368
  S         9.5185020237        6.6607186091       19.7442990579
  H         2.6430652864        7.1623217490       26.2105453801
  H         4.0141557983        6.3622010327       26.9574456922
  C         2.3998724363        5.0817178375       26.3580518913
  N         6.4767409770       -0.8320329778       27.8129022230
  C         5.7149688499       -0.4602866109       30.0118945471
  C         5.3880161104        1.7773110521       30.9965687634
  H         5.3774844538        3.3655191203       29.5307819658
  C         7.9489213826        1.8220998788       19.8612695110
  C        10.4514117062        1.9257330631       20.2433250830
  C         9.5149151518        4.4753623552       18.3282009515
  C         9.6732012810        5.8286039103       18.2241886564
  H         1.6814477987        5.2163332794       25.5320325356
  H         2.8570770597        4.1044470814       26.1703568537
  C         1.6494650144        5.0976948375       27.6696481529
  S         6.2501852853       -2.3542987438       28.4876987724
  N         5.8239948844       -1.8608786749       29.9935243122
  C         5.4248809933        0.2861993460       31.1710481702
  H         5.3357069113        2.4412770901       31.8602949742
  H         7.6845150311        1.1273583087       20.7359509898
  H         8.2701479626        1.1417693749       19.0677455933
  C         6.7094831852        2.6216719542       19.3384552175
  H        10.5592367971        1.8488817545       19.2052906070
  H        10.3980545012        0.8824057731       20.6403010916
  C        11.7006897594        2.7110567732       20.8360302636
  H         9.5432368846        3.7144277058       17.5827787618
  C        10.0284291517        6.5938323279       16.9971571784
  H         0.8497669916        4.3816181852       27.5286881655
  H         1.2079385953        6.0984949272       27.7751289815
  C         2.6339369595        4.8555846046       28.8751201450
  C         5.2287279262       -0.4040575202       32.3916830863
  H         7.0447908670        3.2210905451       18.5035021450
  H         6.3645721002        3.3670364503       20.1384569308
  C         5.6383164413        1.5815179351       18.8859418262
  H        11.4980778271        2.9811927042       21.8467653381
  H        11.8547959138        3.6681994404       20.2841282748
  C        12.9910025448        1.9166519679       20.7164763901
  C        10.1081380908        7.9874134334       16.9290475004
  C        10.1463582292        5.8438979378       15.7025990125
  H         2.8417895805        3.7703373205       28.9846646098
  H         3.6044176634        5.2576010742       28.6390826962
  C         2.0223572151        5.3679020969       30.1770095537
  H         5.5069201992       -1.4388933333       32.3341817632
  C         4.7857569742        0.0244322510       33.6668522900
  H         5.4362395826        1.0095992155       19.8222669394
  H         5.9781762874        0.8006264271       18.2167671271
  C         4.3825971709        2.3096946852       18.4360255223
  H        12.9840718387        1.1945650872       21.4693130501
  H        13.1199378729        1.4002515664       19.7629819782
  C        14.2534969507        2.7394108691       20.8886741269
  N         9.8694111384        8.8871086402       17.9915347410
  C        10.4590817031        8.6797963508       15.7647875305
  C        10.4267746852        6.4977405719       14.5399007489
  H        10.0055852493        4.7284396500       15.6880980846
  H         1.6415175304        6.3388930291       30.1143852244
  H         1.2532029831        4.6548175439       30.5940428073
  H         2.6113844877        5.6210695067       31.0064001142
  S         4.3293446236        1.5884438533       34.1692251391
  C         4.6176445792       -1.0244305021       34.7342545995
  H         4.1937903973        3.1120954084       19.1805082830
  H         4.5746480657        2.7874855440       17.5305366609
  C         3.2066154732        1.3794669412       18.4766446224
  H        14.2670308125        3.5585249393       20.1965221255
  H        15.0835288791        2.0588052055       20.8053906084
  C        14.4751009829        3.2449912548       22.3126187904
  S        10.0776550277       10.4305594550       17.4703509091
  N        10.5105809791       10.0920452643       15.9162229839
  C        10.6338537956        8.0116589199       14.5101680706
  H        10.4863657587        5.9296236369       13.5779875965
  C         4.2512074215        0.9676514752       35.8529485094
  N         4.2560750158       -0.4153766233       35.9077241975
  O         4.7157548749       -2.2520179220       34.5435826736
  H         2.2481720730        1.8983504107       18.5141657313
  H         3.2023627159        0.8753804950       19.3985058687
  C         2.9428801263        0.4388558168       17.2664579231
  H        15.3612034890        3.8719799081       22.2260800181
  H        13.7141127190        3.7606780171       22.8579824461
  C        14.9446326675        2.1287236891       23.2720772428
  C        10.8620317970        8.7698376873       13.3417706823
  S         4.1604393543        1.8641757768       37.3184081942
  C         4.3281509237       -1.2209599405       37.1218388984
  H         2.6808210550        1.0845176872       16.3790902454
  H         3.8455375601       -0.1443468260       17.0404931049
  C         1.8277508136       -0.6348255696       17.5835225440
  H        14.5277297599        1.1535163376       23.0102475980
  H        14.5268492227        2.3798393857       24.2586182714
  C        16.4524197236        2.1998290709       23.6325828184
  H        10.6157414264        9.8535876789       13.4230652258
  C        11.4224547502        8.4496619442       12.1107492751
  H         3.7380660576       -0.8234822599       37.9087080222
  H         3.8308413627       -2.1802049724       36.9843589833
  C         5.7715120318       -1.5103831259       37.5453463596
  H         1.7150854129       -1.3251859531       16.6916595224
  H         0.8193890492       -0.1889252811       17.7437823019
  C         2.0299974898       -1.5331995414       18.8514140952
  H        16.4901058046        3.0069533676       24.3624059911
  H        16.6630049568        1.3516695473       24.2068174668
  C        17.5327315455        2.2274281425       22.5084350859
  S        12.1848775038        7.0072403148       11.6397630589
  C        11.4973725316        9.5473891325       11.0792097681
  H         6.2791945981       -0.5742578754       37.8683144344
  H         5.6616315948       -2.1586081861       38.4144704141
  H         6.2608479789       -2.1396849493       36.7386938259
  H         1.5220095041       -1.2664600536       19.7032652577
  H         3.1148724393       -1.5104348051       19.0875302442
  H         1.6702531651       -2.5396031687       18.5915150172
  H        18.5154175918        1.8879323438       22.8471489229
  H        17.6779296843        3.2134899213       22.0854554559
  H        17.1636453635        1.4854609978       21.7914119990
  C        12.5122515371        7.7678081838       10.0755524516
  N        12.0120603457        9.0020885391        9.9283311467
  O        10.9775327532       10.6810777680       11.1831889222
  S        12.9440632109        6.9395678325        8.6287417947
  C        12.2649514923        9.7934707898        8.7538031341
  H        12.5332090681       10.8042708256        9.1665971746
  H        13.0660399998        9.4663493068        8.1189022207
  C        10.9827887644        9.8675840118        7.9303898587
  H        10.5738771930        8.8887205445        7.8308088015
  H        10.1984424570       10.4904629371        8.4073352617
  H        11.2315987452       10.3279646980        6.9932222984
  H        -3.6500129768       14.3295689939       16.5123704127
  C        -2.9653858481       13.5317359358       16.4158909162
  H        -3.4721649451       12.7784904964       16.9949159122
  C        -1.5671820967       13.8540801145       17.0771720958
  C        -2.9438282181       13.0941573914       14.9559137351
  C        -1.7916400031       14.1987377090       18.5854913942
  H        -0.8017670467       13.0764248455       16.7933514660
  H        -1.0756736434       14.6572220781       16.6445147832
  H        -3.6778611900       13.4904443002       14.2670010363
  H        -1.9688145022       13.4144649654       14.5507261947
  H        -2.9504748074       11.9835722563       14.7888868243
  C        -1.7075378686       12.9036145912       19.4531022235
  H        -2.7768408039       14.5864417819       18.7764006452
  H        -1.0555244462       14.9311266916       18.8928233631
  C        -2.2600947570       13.1257915316       20.9085550361
  H        -2.3074239691       12.0813065206       18.9747265940
  H        -0.6911281974       12.4428350337       19.3441941361
  C        -1.2862334237       12.6214673668       22.0273556283
  H        -3.2449277172       12.6449036526       21.0017190594
  H        -2.3972914233       14.2202031132       20.9249654113
  C        -0.0901901187       13.6484241475       22.2762717837
  H        -1.9671596611       12.4978669181       22.9037799179
  H        -0.9387911377       11.6463274844       21.8182988471
  C         0.9802531656       13.0710202882       23.1124764454
  H         0.4112247742       14.0326521705       21.3974221677
  H        -0.3546170268       14.5537735723       22.8613235812
  C         1.4278981818       11.7517779082       22.4322713086
  C         0.5015951133       12.3268091198       24.3159529739
  C         2.2568141985       13.9538768220       23.2541847719
  C         1.2286644135       10.6400286702       23.2266139480
  C         1.9193063918       11.3715694875       21.1476737865
  C         0.6614771424       11.0065874415       24.4241838061
  C         0.0160665984       12.9919314863       25.4626933004
  H         2.3744636833       14.4422085920       22.2516508102
  H         2.0762932798       14.7993956995       23.9488118697
  C         3.5396182444       13.2591424086       23.7943286085
  S         1.6312287926        9.1199061337       22.4460700612
  C         2.0941551404       10.0182141791       21.0338375122
  H         2.0892716980       12.1516491512       20.4499922006
  C         0.3693819186       10.3655988589       25.6005826208
  H        -0.0631775032       14.0823877734       25.4093699432
  C        -0.2844363893       12.3592441952       26.6283708612
  H         3.7888321464       12.4233676707       23.2422177082
  H         3.3596806407       12.8026370359       24.7365098426
  C         4.7748092716       14.0773789567       23.9465717167
  C         2.4384971221        9.3712235888       19.7109246050
  C        -0.1374156237       11.0268234257       26.7234370120
  H         0.3628064538        9.3061774370       25.6817768618
  C        -0.6313942428       12.7733110692       27.9035089075
  H         5.4735136287       13.5416454353       24.6175003354
  H         4.5607494411       14.9968290866       24.4594414149
  C         5.6689818953       14.4085932112       22.7162660163
  C         2.4579969391        7.9650818129       19.5399512198
  C         2.9062937872       10.2289455480       18.5355050122
  C        -0.4609004027       10.3220050558       28.0551688814
  C        -0.7288678510       11.6955216232       28.7501565991
  S        -0.9109907589       14.2796989371       28.7202840458
  H         6.6253154531       14.6880024559       23.0597051252
  H         5.1923864240       15.2260978565       22.1039747176
  C         5.9782859234       13.1594824352       21.8727196036
  N         2.2894214357        6.9538768020       20.5135065913
  C         2.7881774944        7.3763355442       18.2821136487
  C         3.0772967809        9.6109360274       17.3013142520
  H         2.8534500960       11.3165371323       18.6331301994
  C         0.7355409344        9.5470751523       28.6874800989
  C        -1.7142741113        9.3961297727       28.0302324317
  C        -1.1805737798       12.0656860400       29.9765697598
  C        -1.3169897430       13.4048267796       30.1811280834
  H         5.9031036465       12.2892292691       22.5694263822
  H         5.1534111127       13.0065713017       21.1937467213
  C         7.2372984901       13.0758788979       20.9333563177
  S         2.6208702512        5.4645017639       19.8557301148
  N         2.8345382955        5.9869151728       18.3164357857
  C         3.0536116848        8.1403458931       17.1318434086
  H         3.2944171028       10.2128867945       16.4282609482
  H         1.0403169580        8.7880933420       27.9825295357
  H         0.4210164580        8.8666574223       29.4699303946
  C         2.0460965293       10.2109902710       28.9086925252
  H        -1.5710415011        8.4352619331       27.5053639766
  H        -1.7557502782        9.1596817436       29.1026493026
  C        -2.9117580516       10.0662037415       27.3303277116
  H        -1.3461491228       11.3284064138       30.6650619076
  C        -1.6807244924       14.1550343917       31.4628934505
  H         7.1575612760       12.1259363261       20.5147699581
  H         8.2107062160       12.9577780393       21.4272882338
  C         7.3640031318       14.2271978226       19.8548626959
  C         3.2831574261        7.5104545483       15.8818968296
  H         2.1740322442       10.9109431689       28.0658235129
  H         1.9958865796       10.7754094975       29.8879364757
  C         3.2300502260        9.3772091313       29.0879866436
  H        -2.5998521130       10.3405346476       26.3081530667
  H        -3.0811361595       11.0223619226       27.7963857331
  C        -4.1966961874        9.2102372695       27.2623970013
  C        -1.6777874531       15.4804641616       31.6533355504
  C        -1.8024466199       13.3503204299       32.7386873987
  H         6.4814743361       14.9498086726       19.9670765008
  H         8.1438583519       14.9687449225       19.9119656295
  C         7.3280369319       13.7967170840       18.3426256475
  H         2.9708538088        6.4880152501       15.7739386376
  C         3.7032929710        7.9993463887       14.6662262084
  H         3.3493827097        8.6187979929       28.3110649962
  H         3.1562376614        8.7884847438       30.0173022863
  C         4.5514304221       10.0422521881       29.1346561254
  H        -4.1500774994        8.5707188899       26.3280794254
  H        -4.2831722926        8.5165891693       28.0701597462
  C        -5.4549567513       10.0903898061       27.2627398430
  N        -1.6084542759       16.4344182878       30.5666059557
  C        -1.8192009604       16.1382198282       32.9064453994
  C        -1.9805669267       13.9836766981       33.9516925564
  H        -1.7583641226       12.3169483464       32.8504504748
  H         7.9479607480       12.9443407052       18.0322321316
  H         6.3084214969       13.5504044112       18.1164275405
  H         7.6241136915       14.7010983195       17.8283522828
  S         3.9903578015        9.6733988779       14.2485347975
  C         3.7627786103        7.0146356251       13.5805334400
  H         4.6131406164       10.5355152317       28.1890746212
  H         4.5091133818       10.8357100390       29.8760975229
  C         5.7836846358        9.2484639384       29.3366367333
  H        -5.2137325729       11.1007386831       27.5415064079
  H        -6.0721263211        9.8128352498       28.0849030435
  C        -6.0261076914       10.0996279664       25.8572659275
  S        -1.5772951998       17.8994138450       31.2341580349
  N        -1.7394335464       17.5626388741       32.7849536153
  C        -1.9953617243       15.4458879514       34.0681938816
  H        -2.0930141885       13.4211381279       34.8000693739
  C         4.1551285886        8.9930435869       12.6296967845
  N         4.1943269897        7.6652031870       12.5364533080
  O         3.3316797542        5.8987011327       13.6163399739
  H         6.6404528665        9.8978952418       29.7141037089
  H         6.2197208189        8.8661745181       28.4609364622
  C         5.6793046125        8.1978520570       30.4695692001
  H        -5.2422710913       10.5162589997       25.2596350143
  H        -6.2788205879        9.1446787203       25.3599045816
  C        -7.2393131834       11.0660506587       25.7216239012
  C        -2.3458363080       16.1343483667       35.2279428953
  S         4.4853234213       10.0035817922       11.2383927225
  C         4.2033975654        6.9671653121       11.2332921135
  H         5.4561339568        8.7753600825       31.3293189955
  H         4.8453299447        7.6558117268       30.3240319674
  C         6.8925644637        7.2839658567       30.4984953665
  H        -7.4739313893       11.3031435996       24.6830174204
  H        -6.9568070111       12.0432532487       26.2077710705
  C        -8.5447926074       10.5200963567       26.2623470732
  H        -2.1929565695       17.1712478006       35.1801206484
  C        -2.7028532764       15.8091167242       36.5010649540
  H         4.9672172907        7.3875451261       10.5996145939
  H         4.3638309327        5.8717281287       11.2481464960
  C         2.9169279607        7.0728934998       10.3353504686
  H         7.7105477975        7.8067668552       30.8625196948
  H         7.1191596877        7.0296551507       29.4958454365
  C         6.6782366221        6.0797512916       31.3821244809
  H        -8.6204311235       10.2335243581       27.3351164388
  H        -9.2809867344       11.4036233510       26.0926467493
  C        -9.0301074488        9.2406967111       25.6547028969
  S        -3.1411264815       14.2806936072       37.1025451945
  C        -2.8782358986       16.9014657099       37.5327074757
  H         2.6780367518        8.0523815267        9.8897878555
  H         2.6970447479        6.2984297911        9.6083939701
  H         2.0820728938        7.0265847983       11.0031329660
  H         5.8037054109        5.4792056830       31.3220504374
  H         6.6092782687        6.3322220682       32.4374252837
  H         7.4524988276        5.3456288299       31.4327717649
  H       -10.0299981419        9.1978731952       25.9650614128
  H        -8.4496434327        8.3869659411       26.0595399563
  H        -9.1150104723        9.1877343705       24.5392876990
  C        -3.7343901041       15.1065946352       38.6139773370
  N        -3.5605856050       16.4190983151       38.5606149643
  O        -2.5301227060       18.1326727039       37.3871412598
  S        -4.4439467214       14.1590252753       39.9441938133
  C        -3.8597932413       17.2008681365       39.7212447267
  H        -4.3677822739       18.1378006967       39.4351288644
  H        -4.6989276177       16.7743471237       40.3075847796
  C        -2.6352752488       17.3659763863       40.5797341272
  H        -2.2314956469       18.4042632279       40.4383193141
  H        -2.8927599131       17.2546966159       41.6405800267
  H        -1.8466797264       16.5827719613       40.3772230361
