352
 i =    52100, time =    52100.000, E =        25.0578854587
  H        12.5238344633        6.6395699524       31.7629660551
  C        11.6741092509        6.0329468705       32.1508897527
  H        11.9724319526        5.0010589552       32.0156007204
  C        10.5527561655        6.1251840518       31.1225390355
  C        11.1925872877        6.0231711176       33.6432175093
  C        11.2156191353        5.8945950231       29.7947052369
  H         9.9434087814        5.2721414968       31.3856662546
  H         9.9286398087        7.0500689955       31.1500431678
  H        11.2570428284        7.0059870223       34.0956936087
  H        10.2476916837        5.5614124847       33.8254373896
  H        11.8808641327        5.2827285553       34.0828973664
  C        10.1839764804        5.6550974834       28.6858981485
  H        11.8897715555        5.0260812564       29.8696965122
  H        11.8392997555        6.7086563813       29.5655748877
  C        10.6600419291        5.8132597107       27.2227287808
  H         9.8861906454        4.6372048953       28.8493831847
  H         9.3063695503        6.3038108013       28.8861737511
  C         9.6873116394        5.1018838641       26.2089249805
  H        11.7008811764        5.5743756944       27.0928175420
  H        10.6040391141        6.8714669925       27.0807395276
  C         8.3516624535        5.9316416895       25.9970181030
  H        10.2283807864        4.9915316816       25.2750106325
  H         9.5589810298        4.0220664277       26.6735862613
  C         7.1510754046        5.2658030895       25.1872681098
  H         7.9365664818        6.3480525424       26.9255209072
  H         8.6544904095        6.7716053360       25.3584424361
  C         6.8208656113        3.9235761781       25.8905707413
  C         7.5975620681        4.5151967031       23.9784357200
  C         5.9360590485        6.1817085332       25.0287182455
  C         7.2014225039        2.8155435918       25.2195482459
  C         6.3317268602        3.5654594719       27.1653301206
  C         7.6475850233        3.1357088576       23.9780111733
  C         8.0822972615        5.1373491880       22.8395277560
  H         6.2343647646        6.9557229277       24.3157716836
  H         5.7612217979        6.6755185940       26.0560541357
  C         4.7080281223        5.5209991452       24.4021830733
  S         6.9459485303        1.3410416688       26.0716816958
  C         6.3512121664        2.2454790424       27.3620525452
  H         5.9299769571        4.3824014547       27.8104698367
  C         7.9052349380        2.4902452420       22.8084212000
  H         8.0070356454        6.2404504527       22.8031421327
  C         8.5420344535        4.5036884487       21.7168208793
  H         4.8611778120        5.3317624233       23.3112913817
  H         4.5203518566        4.5926175660       24.8764762279
  C         3.5417612743        6.4352742517       24.3101706891
  C         5.9783320286        1.5978895471       28.6563614700
  C         8.4230193511        3.1355190439       21.6292027590
  H         7.7197053837        1.3496307637       22.7380900186
  C         8.8893727621        4.8126774971       20.3873593554
  H         2.7475243612        5.8371051534       23.8744309916
  H         3.7027754124        7.2837464292       23.6177118179
  C         2.9608883152        6.8644938777       25.6755518688
  C         5.9198227673        0.2119234796       29.0108350995
  C         5.5260566151        2.5374970587       29.7335799381
  C         8.7818021715        2.3117514426       20.3797063970
  C         9.1111633708        3.6819855866       19.6368316099
  S         9.2800122266        6.2429952632       19.6385612957
  H         2.1486963529        7.5511967690       25.6343319090
  H         3.7791011282        7.4076206232       26.1523762612
  C         2.3748069302        5.6175043113       26.4733057768
  N         6.1008289334       -0.9028167726       28.1726115061
  C         5.5708323556       -0.1980151306       30.2549584715
  C         5.1625180448        2.0309128899       30.9550204112
  H         5.2994363167        3.5434565450       29.5374945801
  C         7.5073050141        1.6007335599       19.7419396972
  C        10.0229834801        1.4247194004       20.5721747686
  C         9.4321458890        4.0755563860       18.3053322047
  C         9.5664601536        5.4361678804       18.1320992667
  H         1.6726447048        5.0293840046       25.8066977729
  H         3.2217608523        5.0811989041       26.8348556868
  C         1.5934666061        6.1154089562       27.7780474431
  S         6.0242731847       -2.2726511321       29.0836253894
  N         5.6642533043       -1.5974147528       30.4576459310
  C         5.2689887037        0.6170990224       31.3753461731
  H         4.7858889844        2.7109632042       31.6733785677
  H         6.9660637139        1.2217958926       20.5587748125
  H         7.7340641469        0.7713749921       19.0736785240
  C         6.4584144628        2.5846953959       19.1278916677
  H        10.4462755494        1.0252555284       19.6124170585
  H         9.9377655011        0.6597491827       21.2505927505
  C        11.1917992952        2.2796374036       21.0499928661
  H         9.6460375891        3.1261361561       17.7243182670
  C         9.9567828379        6.1272491134       16.8973917463
  H         0.7104144054        5.4663623691       27.8253803506
  H         1.2269480720        7.1212000202       27.6176836199
  C         2.1443239007        5.8366834176       29.1976493202
  C         5.0187949440        0.0531045613       32.6233226119
  H         6.9485485549        3.2944708745       18.4014714136
  H         6.0662568054        3.2457692605       19.8003431397
  C         5.3287196577        1.8341468618       18.4961203018
  H        10.9703233818        2.8256266308       21.9350786999
  H        11.3028114091        3.0316226958       20.3215744676
  C        12.5005227318        1.4532887703       21.2729648379
  C        10.1741186085        7.5635651630       16.7245828019
  C        10.0344205994        5.3541589915       15.6505589840
  H         2.3571418964        4.8122121989       29.3073974631
  H         3.0567131634        6.3832532306       29.3530725028
  C         1.1205313450        6.1195654630       30.3120161562
  H         5.2226381378       -0.9820462983       32.7021921648
  C         4.7069176433        0.5748794057       33.8281920059
  H         4.7473391318        1.5642318303       19.4067102992
  H         5.7431102872        0.9524114635       17.9907182135
  C         4.3878580596        2.6882599960       17.6662165811
  H        12.3598443427        1.0249894559       22.2885956241
  H        12.6444999982        0.5588469074       20.6452922878
  C        13.7441967330        2.2926859502       21.1144721169
  N         9.8827352266        8.5162975049       17.7228225842
  C        10.5310174742        8.1186795222       15.5080656494
  C        10.5048562097        5.9270638087       14.4422805722
  H         9.8190022407        4.3157397936       15.7867167281
  H         1.6691643881        5.9670278931       31.2626627592
  H         0.6482413273        7.1042310691       30.3567633084
  H         0.3043647229        5.4518608218       30.3091710853
  S         4.3081950442        2.1696094125       34.2664091744
  C         4.6781982150       -0.3505630026       35.0139742139
  H         4.4930010312        3.6473872556       18.0935597468
  H         4.7528198037        2.7659408439       16.7069531752
  C         2.9089462521        2.1082073269       17.6828459927
  H        13.4638320417        3.0928461190       20.3649592604
  H        14.5616649638        1.6356276346       20.7263764386
  C        14.1682989998        3.0184575893       22.3785211274
  S        10.2031886069        9.9939759625       17.0944156619
  N        10.6440483808        9.5071447950       15.5879734262
  C        10.8051707094        7.4295639175       14.2923997127
  H        10.4215303100        5.4187880091       13.5168156655
  C         4.0639614340        1.5866182233       35.8711352102
  N         4.0817312618        0.2313511521       36.0678900792
  O         4.8270754187       -1.5531355014       34.9456614759
  H         2.2226892214        2.6194945872       17.0160447609
  H         2.7015630253        2.2589150045       18.7842294782
  C         2.6224987568        0.5950047613       17.3949425068
  H        14.6379990822        3.9092378666       21.9364627630
  H        13.2718786311        3.4117338128       22.8412152152
  C        15.0456709589        2.2769481740       23.3205094589
  C        11.0967553794        8.1740179541       13.0913220819
  S         3.7475818383        2.6470627112       37.2820633340
  C         3.9849344512       -0.5007137321       37.3987141243
  H         2.1460753302        0.5241795066       16.3832291420
  H         3.6333986653        0.1184054390       17.2507694561
  C         1.8072308102       -0.0796397890       18.4985250051
  H        14.6930201897        1.2432284966       23.5384109217
  H        14.9377153432        2.7716642120       24.2572063927
  C        16.5529543596        2.4893321465       23.0917417369
  H        10.8487530732        9.2124103999       13.2136367948
  C        11.5056924675        7.9490175373       11.8037583909
  H         3.3124805225        0.1886305492       38.0147677455
  H         3.5386608904       -1.4518084130       37.3064272328
  C         5.2769158223       -0.5257886523       38.1429375746
  H         0.8683111306        0.3280868898       18.7019931239
  H         2.4303570563        0.0212447937       19.3603850515
  C         1.6155157307       -1.6005961835       18.1695342425
  H        16.6735672346        3.5237583654       23.1133607905
  H        17.1192754059        2.0392157673       23.9171719674
  C        17.1166599712        2.0228598394       21.7249067564
  S        11.7329517752        6.4066010514       11.1173942575
  C        11.6884426480        9.0903730095       10.9535792345
  H         5.9676436110        0.2147715123       37.8222540664
  H         5.0429722312       -0.4192826960       39.1389059089
  H         5.7882679916       -1.5049254656       38.0497567591
  H         0.7884603927       -1.7578677646       17.5613780107
  H         1.5336794368       -2.1125646461       19.1206028179
  H         2.4384184597       -1.9484145373       17.5540902852
  H        16.5378973925        2.3108649274       20.8528357473
  H        17.3146099510        0.9761795220       21.6066620449
  H        18.0906340887        2.4898861886       21.5499222880
  C        12.3566406827        7.3418958436        9.8119999962
  N        12.2878100539        8.6790179199        9.8623357879
  O        11.5703765209       10.2692942443       11.2745664685
  S        13.2313762575        6.7106074160        8.4291722318
  C        12.5141218237        9.6056656545        8.7577884603
  H        12.8040523285       10.5035154452        9.2692647958
  H        13.3835953177        9.2511490124        8.1581773017
  C        11.2306849348        9.9104643363        8.0483058191
  H        11.0408002544        9.2033421007        7.1773439924
  H        10.3802134150       10.0562884179        8.7174974568
  H        11.2935870100       10.9105056737        7.6708131858
  H        -1.0665314279       13.1783063203       16.6575827642
  C        -1.5801509161       13.9526011418       16.1647170056
  H        -0.9002446214       14.4640170507       15.5256035444
  C        -2.1109271937       14.9458294407       17.1956705421
  C        -2.6379686577       13.2687421114       15.1870240735
  C        -2.6705153613       14.3180200657       18.4904910446
  H        -1.3097585361       15.5082609117       17.6382832600
  H        -2.7756859388       15.6400057028       16.6661106231
  H        -2.3453473309       13.5653649803       14.1497726854
  H        -2.5207717059       12.2197119485       15.0800834311
  H        -3.6913363272       13.5539691293       15.2913166974
  C        -1.6744484653       14.1226345781       19.6341027498
  H        -3.0001554237       13.2943505717       18.1940553436
  H        -3.5142747018       14.7631107791       18.9171878596
  C        -2.1027114332       13.3671149270       20.8833687348
  H        -0.9126453575       13.4503771473       19.1684649508
  H        -1.2394082829       15.1210725438       19.9179626126
  C        -0.9184022351       12.7735904292       21.6655785979
  H        -2.8622000343       12.6541664512       20.5886783426
  H        -2.6713599634       14.0058734674       21.5272415722
  C         0.1568732312       13.8215066234       22.1277467327
  H        -1.3392917177       12.3512539559       22.5663019647
  H        -0.5935893894       11.9558816585       21.0968080772
  C         1.2547675206       13.2071873800       23.0066272280
  H         0.4918606168       14.3224299248       21.2426030368
  H        -0.3512968553       14.6114806893       22.6136995202
  C         1.6714046110       11.8215098612       22.4652031952
  C         0.6723585861       12.5464885082       24.2480493318
  C         2.4160395203       14.1876888377       23.3401274125
  C         1.2913069174       10.7499197427       23.2958961753
  C         2.3844643584       11.3838712131       21.3669432079
  C         0.7500334289       11.2149646803       24.4217434444
  C         0.2352234350       13.2865160156       25.3525028869
  H         2.6931316979       14.7053197161       22.4078396302
  H         1.9357186986       14.9140272101       24.0035193725
  C         3.6501860838       13.4575058818       23.9215498619
  S         1.5899953663        9.1982659561       22.6587831638
  C         2.3664317369       10.0144274150       21.2413847781
  H         2.6395331645       12.0585306608       20.5577527414
  C         0.3189570022       10.7078644098       25.5831913002
  H         0.2784439932       14.3960421497       25.3722469667
  C        -0.1733557425       12.7628976791       26.5574135218
  H         4.0237384260       12.8296176983       23.1362592339
  H         3.3745128622       12.7230640814       24.6921250900
  C         4.7536275081       14.3667629700       24.4774534004
  C         2.8508932670        9.3140065417       19.9558630377
  C        -0.2253871490       11.3926007697       26.6772321318
  H         0.4377601995        9.6435202603       25.6152811932
  C        -0.6478750472       13.2008306251       27.7724451362
  H         5.1070220466       13.8060238628       25.2849707284
  H         4.2543848219       15.2231811079       24.9094135775
  C         5.9059597344       14.7060507807       23.4960614495
  C         2.6514569937        7.9419911617       19.6815653459
  C         3.3790861489       10.1243183207       18.8004695068
  C        -0.6580728413       10.7679921023       27.9858797509
  C        -0.9161070022       12.1222688005       28.5914444778
  S        -0.9829505597       14.8027782802       28.4918738084
  H         6.4360614802       15.4974549270       24.0591315775
  H         5.6943375403       15.3959708133       22.6325300344
  C         6.8979024774       13.5663819540       23.1433687411
  N         2.0923164095        7.0440203574       20.5400398876
  C         2.9663662462        7.4252823886       18.4016064149
  C         3.6040394326        9.6226431784       17.5228219581
  H         3.6054963228       11.2061056581       18.9844757916
  C         0.4712040746       10.0750561220       28.7022891089
  C        -1.9298981317        9.9237216812       27.8903533262
  C        -1.2647331808       12.6272075891       29.8433619570
  C        -1.3060540789       14.0091667682       29.9935141132
  H         7.5097843464       13.4260356270       24.0600108499
  H         6.3558127523       12.5785871884       23.0241446128
  C         7.7429949522       13.8290348021       21.9388969977
  S         2.0855677210        5.5975267232       19.7599730404
  N         2.6656133224        6.0575512696       18.3158521715
  C         3.3530297406        8.1704749572       17.2584822364
  H         3.9931774984       10.3398576600       16.8952528152
  H         0.6720727518        9.1852802806       28.1483428921
  H         0.0035349393        9.6432835896       29.5895270015
  C         1.7502815711       10.7819305345       29.0423992758
  H        -1.5072489506        9.1465209392       27.2078205746
  H        -2.1519764792        9.4716491423       28.8131806201
  C        -3.1648964899       10.5799868824       27.3366498188
  H        -1.5868817639       11.9056755005       30.5663008877
  C        -1.5916959768       14.7143712173       31.2786612363
  H         8.7558647583       13.5794567770       22.1596548226
  H         8.0045270464       14.9216687774       21.8064924976
  C         7.2848787909       13.3178252200       20.4996042747
  C         3.5210315545        7.6436446892       16.0322177129
  H         2.1780861507       11.3137235140       28.1275953909
  H         1.6120214825       11.4817821664       29.9175550788
  C         2.9045590885        9.7513385607       29.4189599315
  H        -3.0511690551       11.0053695452       26.3505269151
  H        -3.3922695150       11.4853343208       27.9077782625
  C        -4.3270096453        9.6067539449       27.4530861740
  C        -1.6188256653       16.1488815375       31.3755172195
  C        -1.7843784269       14.0116497830       32.5839082767
  H         8.1095075277       13.5445248196       19.7614148784
  H         7.1183747755       12.2147077280       20.6004879599
  C         6.1229268576       14.0548341247       19.8470043401
  H         3.3989292298        6.5352528408       16.0069542221
  C         3.7751175540        8.1475872640       14.7640917040
  H         3.1281006445        9.1977199700       28.5170907044
  H         2.4635133047        9.0081391916       30.0194114777
  C         4.1052500155       10.3780503090       30.1798778658
  H        -4.3679317197        8.8582334100       26.6204443308
  H        -4.1256018587        8.9861516669       28.2918157234
  C        -5.6659300522       10.3362419353       27.7173548312
  N        -1.3272957260       16.9989597053       30.2595822447
  C        -1.9671145299       16.8652330380       32.5203590199
  C        -2.0020512567       14.7002571986       33.7428287409
  H        -1.5837729559       12.9085450761       32.5937523638
  H         5.3512314717       13.4387839103       19.3581302092
  H         5.6223827955       14.7160689386       20.5640113775
  H         6.5652056664       14.7568811231       19.0498658925
  S         4.0796972885        9.7875719196       14.2500114778
  C         3.7259492296        7.1842744872       13.7051013480
  H         4.1697771776       11.3830537665       29.7992598433
  H         3.8911034312       10.4995418294       31.2293830830
  C         5.4274228210        9.5982981295       30.2042299861
  H        -5.6629898322       10.9587651072       28.6141127538
  H        -6.3553935158        9.5245309978       27.8635354182
  C        -6.1644971086       11.0435462778       26.4428988053
  S        -1.4594368254       18.4688674329       30.7580037534
  N        -2.0265646063       18.2624970731       32.2632704048
  C        -2.2603352762       16.1845343131       33.7180307976
  H        -2.0896958210       14.1104914627       34.5965372260
  C         3.9259435727        9.1204032746       12.5615376609
  N         4.0012320918        7.7760762735       12.5603518983
  O         3.3856123821        5.9899411219       13.7900535251
  H         6.3207293114       10.1139425230       30.6139950080
  H         5.6961755949        9.3349992024       29.2090211363
  C         5.3972827351        8.3330120730       31.0917942131
  H        -5.7682095642       12.0814066320       26.4028253147
  H        -5.8196410611       10.5106854093       25.5466108076
  C        -7.6825019885       11.1430969860       26.4157109052
  C        -2.5671994157       16.8506445133       34.9073833391
  S         4.6001556185       10.0004233486       11.2305939204
  C         4.0603650036        7.0083985641       11.2568130458
  H         6.0469506581        8.4228136689       32.0187901285
  H         4.3966666123        8.1134393677       31.4023868494
  C         6.0789079930        7.1574841167       30.3799652374
  H        -7.8957539260       12.0033654992       25.8739309689
  H        -8.1700293209       11.2622094462       27.4090818048
  C        -8.3234117567        9.8981638878       25.7806588219
  H        -2.5396441656       17.9023707109       34.6564550620
  C        -3.1180500526       16.4747916500       36.1172628577
  H         4.7209815577        7.3841335362       10.5139203074
  H         4.5105032690        6.0441992815       11.5066587488
  C         2.6765910022        6.8300532095       10.5914402142
  H         7.0452615054        7.4990644040       30.0011863766
  H         5.4459722959        6.9549829689       29.4951650399
  C         6.2252486906        6.0076706679       31.3078542287
  H        -7.8990555042        9.6628437871       24.8312579172
  H        -8.2093105358        8.9785954771       26.4882307803
  C        -9.8490184196       10.1555162094       25.6577200614
  S        -3.4933043168       14.8816265199       36.6078787238
  C        -3.1915806238       17.5393899846       37.1769102974
  H         2.3080223795        7.8282087850       10.3742298732
  H         2.8043155854        6.3791164761        9.6264546231
  H         2.0098622859        6.1927352840       11.1922708044
  H         7.2237680501        6.0694900488       31.8200941911
  H         6.2576590031        5.1685677850       30.5815689459
  H         5.3916205708        5.8989110614       31.9858816605
  H       -10.3138076940        9.3127188238       26.2261334258
  H       -10.1780018870       10.2005201685       24.6609114067
  H       -10.1512127712       11.0736188595       26.1256346051
  C        -3.9297761542       15.5868857695       38.2001509501
  N        -3.7870570369       16.9165028503       38.2464614560
  O        -3.0091639954       18.7576779042       36.9400703277
  S        -4.8337300660       14.7008276554       39.5078908236
  C        -4.0041928981       17.6899333138       39.4816414917
  H        -4.2100835071       18.7237357581       39.2653775499
  H        -4.8974575311       17.2848602491       40.0223021454
  C        -2.8075199289       17.4298041254       40.2858694087
  H        -1.9328933318       17.7604187287       39.8325402010
  H        -2.8447358200       17.8987588695       41.2410681817
  H        -2.5554438049       16.3602908857       40.4164590884
