352
 i =    23500, time =    23500.000, E =        24.9488047405
  H        11.6924134175        6.5904683186       32.4486122333
  C        11.0978476909        5.7068074055       32.3514736664
  H        11.8199006633        4.9330360784       31.9958225593
  C        10.0610253472        5.8928627728       31.2819298851
  C        10.6199842040        5.1860074456       33.6677694101
  C        10.7316259205        5.4815023019       29.9955047426
  H         9.2064714588        5.3205626834       31.5954885891
  H         9.6786273764        6.8991397987       31.1791924764
  H         9.8642471659        4.4452371934       33.5277957981
  H        11.4127562481        4.6360117061       34.2117983661
  H        10.2579296755        6.0501710168       34.2415931931
  C         9.8893862518        5.6159116432       28.7641362302
  H        10.8568845834        4.4800899632       30.2550685093
  H        11.6224311979        6.0734056150       29.7308243038
  C        10.6142059005        5.3009258380       27.4820702298
  H         8.9911239901        4.9709725983       28.8624187118
  H         9.4942957910        6.6202504091       28.5756472024
  C         9.6408241434        4.6334479004       26.5057856123
  H        11.4795078701        4.7296073925       27.5700373618
  H        10.9291620092        6.3312239695       27.0956946611
  C         8.6198640126        5.7300035252       25.9136373989
  H        10.2120458135        4.0898054166       25.7599219112
  H         9.1882374504        3.7603628428       27.0721638033
  C         7.4658732525        5.0198746399       25.2365649805
  H         8.2665925460        6.5518651241       26.6033464793
  H         9.1342345293        6.2102370208       25.0746889940
  C         7.0992143495        3.6533772757       25.8582131580
  C         7.9236094470        4.3117317956       23.9915294468
  C         6.1515809344        5.8711704391       25.0289228532
  C         7.4312213614        2.5132411092       25.1282830057
  C         6.5580762417        3.2935651615       27.0872931748
  C         7.9042129515        2.9275226201       23.9595889537
  C         8.3029059339        5.0212086808       22.8710865223
  H         6.4833921157        6.6114710237       24.2616962992
  H         5.8649658915        6.5271476869       25.8477369634
  C         4.9351111108        5.1227734398       24.6141753752
  S         7.1323061436        1.0524606557       25.9865879628
  C         6.4788334029        1.9406586799       27.2977180117
  H         6.2562924776        4.1367448485       27.7863975555
  C         8.3382730042        2.3475415781       22.7408031499
  H         8.3383072782        6.1528615497       22.9161863654
  C         8.6981591249        4.4058933731       21.7359771373
  H         5.1524469133        4.7387723428       23.6379507794
  H         4.7788541309        4.4050325313       25.2909827163
  C         3.6322949683        5.9015824964       24.6779555142
  C         6.0301476439        1.2860557215       28.5549559741
  C         8.7411113442        3.0821839798       21.5671110617
  H         8.3975589808        1.2702885848       22.6445648337
  C         9.1303705444        4.8150727953       20.4768682098
  H         2.9315649827        5.3702013317       24.0355699635
  H         3.6027016992        6.9470534905       24.2800129572
  C         2.9568907344        5.9294617955       26.0153474996
  C         5.9043300604       -0.1314506682       28.7064775685
  C         5.8179511003        2.0730968629       29.7689684159
  C         9.2291222262        2.4150897541       20.3343475059
  C         9.5234683783        3.7830989584       19.6570486838
  S         9.3845530691        6.3440503900       19.7867342520
  H         2.1969870455        6.6634336612       26.2198184365
  H         3.7863627613        6.0788474273       26.7222888185
  C         2.3674509030        4.5723831122       26.3805195139
  N         6.1146166537       -1.1203989766       27.7257637865
  C         5.5112587401       -0.7139974172       29.9413453673
  C         5.5919692034        1.4555886055       30.9757440943
  H         5.8316511770        3.1372983297       29.7545519012
  C         8.0418518050        1.5964921842       19.8144363328
  C        10.4757375867        1.5142405883       20.4602924309
  C         9.9960063820        4.2529293338       18.4499840311
  C         9.9031492833        5.6161364336       18.3600508218
  H         1.8360808274        4.1351807404       25.5959982247
  H         3.2394260033        3.9448491364       26.4700787957
  C         1.5410104504        4.6488027920       27.6235050869
  S         6.0682141013       -2.5808476363       28.4609781486
  N         5.5643148686       -2.0993596211       29.9705935676
  C         5.2964352154        0.0258273679       31.1448691518
  H         5.5437196129        2.0533457313       31.9117457679
  H         7.5811584266        0.9432890726       20.6241847491
  H         8.3209605238        0.9188649399       19.0605850700
  C         6.9661686756        2.4422175868       19.2101302556
  H        10.5527473331        0.9922131883       19.5157249164
  H        10.2819640196        0.8107849872       21.2830241669
  C        11.7799913621        2.2623433281       20.6781959440
  H        10.1962419039        3.5045185000       17.6384616561
  C        10.1605729762        6.4577171183       17.1588979190
  H         1.1493557219        3.6421759302       27.7470327205
  H         0.7214687358        5.4253582641       27.4739058295
  C         2.2876653821        5.3103727357       28.8372986788
  C         5.0835304489       -0.6270814926       32.3683362478
  H         7.3525128773        2.9354893475       18.3208329301
  H         6.6456737820        3.1907648136       19.8915873742
  C         5.7723527091        1.5353607178       18.9103967468
  H        11.7546697157        2.8999648734       21.5518176756
  H        12.0449889109        2.7605627051       19.7624055798
  C        12.9512477551        1.1814084334       20.8411136386
  C        10.2041161629        7.8463342471       17.0099027244
  C        10.3324183758        5.7298426947       15.8838982024
  H         3.2481902122        4.8874993364       28.8118517589
  H         2.3570464937        6.4158661797       28.7727906448
  C         1.6189141197        4.9844945899       30.1865324751
  H         4.9930204223       -1.6788127532       32.3927984622
  C         4.6809757559       -0.1781634689       33.5825165784
  H         5.5034829276        0.9586955259       19.8343467571
  H         6.2031831125        0.8403520087       18.2196823667
  C         4.7004503364        2.4271427657       18.3484095224
  H        12.8223601586        0.6541130918       21.7810009637
  H        12.7971005860        0.5382643576       20.0255379722
  C        14.4339512789        1.6877983778       20.8014468110
  N        10.0434431523        8.7452425313       18.0313847362
  C        10.4191440588        8.5361617750       15.8178973035
  C        10.4979115109        6.4314784206       14.6819730169
  H        10.2783464421        4.6768115067       15.8128679687
  H         1.8840353450        5.8146290524       30.9145824632
  H         0.6135096093        4.9961190016       30.0545695922
  H         2.0179590636        4.0703363266       30.5323253610
  S         4.2508309484        1.3884618733       34.0086075033
  C         4.4331737197       -1.1693911617       34.7035354984
  H         4.6958073632        3.3568081982       18.9399952376
  H         4.9757379856        2.7809879320       17.3423495487
  C         3.3460204634        1.7418542091       18.4098273451
  H        14.5041435366        2.1699704647       19.8503171916
  H        15.0996863345        0.8282713376       20.8151954482
  C        14.8353369622        2.5589431972       21.9913948586
  S         9.9382377561       10.2312148418       17.4814265751
  N        10.3264676767        9.9013780242       15.9014102563
  C        10.6019781942        7.8922075698       14.5772353511
  H        10.6380562995        5.8859430279       13.7523495151
  C         3.9847315989        0.8239542450       35.6298018447
  N         4.0036943048       -0.5026392283       35.8324314006
  O         4.7264276337       -2.3802933729       34.6913258821
  H         2.6838639400        2.4032536203       17.9847247509
  H         3.0962056273        1.6410250999       19.5140930335
  C         3.4158908319        0.4326680890       17.6673170149
  H        15.7736816418        3.0129002766       21.6942100344
  H        14.0756230951        3.3495288541       22.2053102489
  C        15.1182838594        1.8538599388       23.2873849358
  C        10.9201862965        8.6286248461       13.4144740717
  S         3.7370033079        1.8751891035       37.0367570112
  C         3.9636879577       -1.1136201724       37.1623867392
  H         3.7226010380        0.7121633912       16.7011231594
  H         4.1227275778       -0.2368031989       18.0751728639
  C         2.0399087334       -0.3249224270       17.6940172286
  H        14.7952544827        0.8078350148       23.3104987121
  H        14.5432052604        2.4200799400       24.0560552945
  C        16.5867623856        1.8998704925       23.7454846763
  H        10.7116571510        9.6682011624       13.5468657166
  C        11.4056900767        8.3066981709       12.2187149022
  H         3.3166659337       -0.5313223938       37.7408846270
  H         3.5198928929       -2.1111025214       37.1352947297
  C         5.3223578359       -1.1996254317       37.8036589380
  H         1.5916111554       -0.0826859928       16.7179529066
  H         1.4190789174        0.0311510942       18.5496749479
  C         2.2558120740       -1.8307259832       17.8482479630
  H        16.7848786047        2.9221521221       24.1120089057
  H        16.7329879539        1.3433448860       24.6882199989
  C        17.7518240782        1.5802410859       22.8361587517
  S        12.0533014235        6.8115375301       11.6047097813
  C        11.4390621557        9.3656959791       11.2114604583
  H         5.5811854580       -2.2465875068       38.1426743169
  H         5.9830081073       -0.8074179098       37.0395707827
  H         5.4395584696       -0.5594248214       38.7065060485
  H         2.4951216399       -2.3079517187       16.8871120099
  H         1.2891029832       -2.2932184598       18.1237744167
  H         2.8583038508       -2.1550320727       18.6964446215
  H        18.5304559191        1.1665483256       23.5238818552
  H        18.1558469385        2.4196215688       22.2761712801
  H        17.5334723766        0.7957552211       22.0977850513
  C        12.1583080174        7.6105111972       10.0322388358
  N        11.9638160009        8.9603316065       10.0507727989
  O        10.9596001822       10.5088173004       11.3444902209
  S        12.8136932054        6.8008040065        8.5588936327
  C        12.1063316939        9.8828365934        8.9552066639
  H        12.3206134000       10.9065279106        9.1586149209
  H        12.9460425430        9.6681127382        8.3109036349
  C        10.7764712842        9.8987512627        8.1778606843
  H         9.9316996308       10.3662974069        8.6517010361
  H        10.9815618439       10.4882953188        7.3273495215
  H        10.4433714815        9.0016985899        7.6183447140
  H        -3.6714050276       14.6879209294       16.1936187153
  C        -3.2995891775       13.6479091554       16.3854900892
  H        -4.2022692923       13.1447893200       16.7033416254
  C        -2.1694022917       13.4353127372       17.4847684194
  C        -2.9134078700       12.8722834848       15.1106385900
  C        -2.6591260010       13.4517172191       18.8468416586
  H        -1.6016795458       12.5162946916       17.1918206991
  H        -1.4832286564       14.2164014170       17.3246461511
  H        -2.4357615837       13.4500955576       14.3140950208
  H        -2.3925529300       11.9368099764       15.3015580137
  H        -3.8550145471       12.4948108408       14.6377303260
  C        -1.5818472764       13.2217807888       19.8789766858
  H        -3.5145147634       12.8251827748       19.0251019007
  H        -3.1745205622       14.3993067311       19.0647148982
  C        -2.0381557840       13.1671120601       21.3696701580
  H        -1.1592683886       12.2570380644       19.5425524172
  H        -0.7792964181       13.9542114683       19.6700771510
  C        -1.1725030488       12.4938285538       22.3654038861
  H        -2.9675612116       12.6267710863       21.3458802432
  H        -2.2219780193       14.1846861978       21.6647618384
  C         0.1549036445       13.3789746187       22.5876809752
  H        -1.6890664710       12.4109275996       23.3658931202
  H        -1.0600271589       11.4873317871       21.9681610983
  C         1.2812969161       12.6675033241       23.3842375750
  H         0.6296768870       13.7529906354       21.6515006904
  H        -0.1074970591       14.2820800621       23.1625197222
  C         1.5950479620       11.3361012242       22.6547650218
  C         0.8738366396       11.8738967608       24.5247987787
  C         2.5887974056       13.4673140410       23.4585399631
  C         1.3022698368       10.2245271876       23.3767839967
  C         2.2005597490       11.0354024809       21.4413404034
  C         0.8793362197       10.5074807065       24.6733226875
  C         0.3641047229       12.5188997950       25.6179119855
  H         2.7555676597       13.7772804934       22.4273369927
  H         2.4424474998       14.2518947225       24.1776965994
  C         3.8221772968       12.6973466062       23.9887218009
  S         1.5331461115        8.7853495612       22.4524962496
  C         2.2245598735        9.6956747618       21.1655605346
  H         2.4444514528       11.8448645938       20.7584721079
  C         0.3689586219        9.8611565125       25.7505398727
  H         0.4461786158       13.6164952899       25.6770590047
  C        -0.1338516770       11.9325723406       26.7014351999
  H         3.9656142857       11.8335408588       23.3591169355
  H         3.4465153488       12.2154291124       24.9309607686
  C         5.0214996422       13.6318200491       24.0950763542
  C         2.6113875118        9.0806894158       19.8581291863
  C        -0.2435147528       10.5738106659       26.8211560850
  H         0.4137507504        8.7644337746       25.7805049888
  C        -0.5852903788       12.2765507403       27.9152294045
  H         5.8175774732       13.0207017318       24.6118896647
  H         4.8349280030       14.4795022668       24.8037449799
  C         5.6347660095       14.1734481500       22.8068760501
  C         2.5607488328        7.7134489459       19.6152354339
  C         3.1401245502        9.9251197006       18.7527485506
  C        -0.7027954398        9.9076264595       28.0778774103
  C        -0.9723843360       11.2372935408       28.7476986634
  S        -0.6898338160       13.8187672654       28.7591153405
  H         6.5224266657       14.7441612024       23.0200005878
  H         5.0364947650       14.8652936693       22.1611602141
  C         6.0952981968       13.1380808854       21.7985836625
  N         2.2958022441        6.7624294822       20.6016411707
  C         2.8460341453        7.1342595027       18.3971840682
  C         3.4305846407        9.3550078418       17.5417000194
  H         3.1448148824       11.0206213730       18.8578665743
  C         0.4206687621        9.1725958940       28.8459735873
  C        -2.0538503190        9.2843166367       27.9012095103
  C        -1.4674074648       11.6860254675       30.0141646717
  C        -1.2693962681       13.0634977900       30.1197162719
  H         6.6749332890       12.3841884599       22.3464424918
  H         5.3647494411       12.6045768628       21.3133734604
  C         6.9748587555       13.7598034207       20.7266126378
  S         2.2601883959        5.3194632139       19.8847580120
  N         2.7923267064        5.7817592336       18.4642032080
  C         3.2756102121        7.8486688542       17.2841204730
  H         3.6868182930        9.9561744073       16.7070946923
  H         0.5522608497        8.2209572270       28.3098895732
  H        -0.0771497483        9.0509548995       29.8572997277
  C         1.6803041984        9.9407006120       29.1337003151
  H        -2.0087071749        8.6979284034       27.0408832133
  H        -2.2311713118        8.5639492265       28.6798419699
  C        -3.3526133777       10.1358359618       27.5469553281
  H        -1.8163555506       10.9639858250       30.7443944333
  C        -1.4877478660       13.8098116783       31.4271584961
  H         7.7977635758       13.1144263700       20.4476504385
  H         7.4286271277       14.6860789908       21.1990355173
  C         6.3473064394       14.1044528372       19.4583979369
  C         3.4037982219        7.2168120483       15.9673780433
  H         1.9973136504       10.4369673500       28.2202135409
  H         1.4822594861       10.7174923977       29.9189390088
  C         2.7976114125        8.9793633390       29.6163261311
  H        -3.1867166595       10.7799697816       26.6751444708
  H        -3.6850952111       10.7959298349       28.3988400854
  C        -4.5115844556        9.1899025139       27.2903632348
  C        -1.5288767392       15.1882952083       31.5707239290
  C        -1.6458494544       13.0951986167       32.6889916767
  H         5.3208248057       14.5772896178       19.5433378596
  H         6.8922061951       14.7459765860       18.8014399388
  C         6.2052962414       12.7944761207       18.6792445910
  H         3.2801530720        6.1468822365       15.9046931498
  C         3.6489441404        7.6699763564       14.6405455610
  H         3.1903007690        8.3442342346       28.8599567527
  H         2.2359277604        8.3133028457       30.2797860079
  C         3.8795007526        9.7593430623       30.3927017154
  H        -4.3725114153        8.8349903125       26.2481497801
  H        -4.6928855406        8.3354460323       27.9504123490
  C        -5.7702325424       10.0713049975       27.3766130376
  N        -1.3963754728       16.0633595489       30.5007439654
  C        -1.8427925980       15.8302954161       32.7337823706
  C        -1.9814773628       13.6916347515       33.9154322590
  H        -1.4863815460       12.0686640209       32.7617251350
  H         5.7025539033       12.0175392797       19.2095856362
  H         5.5844329697       12.9285968420       17.8012699287
  H         7.0808809200       12.3668819165       18.3287612466
  S         3.9798763796        9.3228467988       14.3231178302
  C         3.5443328543        6.7480749392       13.4508307937
  H         4.1050460014       10.7251331553       29.9505865758
  H         3.4564233937        9.9724592799       31.3628501912
  C         5.1617493595        8.9862660433       30.6912544978
  H        -5.8047840365       10.8854449712       26.6767043325
  H        -5.7997355420       10.6708782292       28.2687611688
  C        -7.0111768192        9.1859005423       27.3036884740
  S        -1.3708310212       17.5769512362       31.0171727495
  N        -1.8795326894       17.2216078318       32.5143375714
  C        -2.0583967398       15.2343444518       33.9545742486
  H        -1.9921881330       13.0919576656       34.8716407478
  C         4.0997672113        8.8008598255       12.6418910778
  N         3.9101641099        7.4652059597       12.3864086832
  O         3.3355033541        5.5305841791       13.4928282078
  H         5.8361060182        9.7691110101       30.7925092082
  H         5.4248124762        8.4398971052       29.7686183744
  C         5.1370024661        8.0827994839       31.9227385565
  H        -6.9291883639        8.3981745384       26.5379296876
  H        -7.1353237167        8.6127446354       28.1680031620
  C        -8.2524763152       10.0744240835       27.0092805614
  C        -2.3860406292       16.0118220668       35.1014533656
  S         4.6082584611        9.7489046069       11.2366504452
  C         3.8724095458        6.9087006903       11.0369029632
  H         5.3273003951        8.6517526213       32.8978061464
  H         4.1227292437        7.6447372806       31.9974750971
  C         6.2223389796        6.9860816035       31.7996502191
  H        -7.8949617862       10.9824234422       26.4513659755
  H        -8.6952173700       10.4141046076       27.9179641648
  C        -9.4219209795        9.4807057850       26.1676632381
  H        -2.2269228216       17.0923428345       34.9638996488
  C        -3.0092373161       15.6074409404       36.2649461172
  H         4.4018757111        7.4430023054       10.3233225676
  H         4.4996696096        6.0002743475       11.0325423140
  C         2.4252519304        6.6701997969       10.6194628700
  H         6.7419954629        6.7725213259       32.7193075024
  H         6.9612054024        7.3264160646       31.1106192931
  C         5.6599128868        5.7108222906       31.1741380144
  H        -9.6916203416        8.5158705316       26.6024368993
  H       -10.1885450036       10.2110590150       26.4052547929
  C        -8.9479964167        9.5283774375       24.7248114736
  S        -3.6524462656       14.0268500861       36.6250316918
  C        -3.1337582571       16.6867007216       37.2285825013
  H         2.3037815069        6.9665105662        9.5986941835
  H         2.0601082682        5.6239959472       10.7132396492
  H         1.8218491632        7.3041420294       11.2339603406
  H         6.3648451665        5.3146424074       30.4491526141
  H         4.6777776511        5.8283373420       30.7198206060
  H         5.5564317243        4.9411002030       31.9233283558
  H        -8.2794587923        8.7250612150       24.6045387653
  H        -8.4406125673       10.4679466323       24.4291210663
  H        -9.7417943261        9.3454337199       24.0304495530
  C        -4.0111868346       14.8460784710       38.1694151905
  N        -3.7863884957       16.2128763845       38.2390111566
  O        -2.6678499303       17.8150433025       37.1565001819
  S        -4.9803074939       14.1033589294       39.5333543493
  C        -3.9749993483       17.1009366208       39.4158258350
  H        -4.2648674070       18.0764746025       39.0549249205
  H        -4.8614167212       16.8067410376       39.9309131231
  C        -2.7818565424       17.2447673843       40.3823935452
  H        -2.8600617289       18.1891592121       40.9396108144
  H        -2.7555041527       16.4286705231       41.0657088157
  H        -1.7803596266       17.2061783415       39.9872509794
