352
 i =     3100, time =     3100.000, E =        39.8294940616
  H        11.9408200515        6.5948909721       32.3352575978
  C        11.4650146573        5.6514389427       32.2777661596
  H        12.1965624091        4.9910391403       32.0606057410
  C        10.4332994172        5.6238322648       31.1031322893
  C        10.7921926882        5.3686065792       33.6056384827
  C        11.1180928710        5.5546021725       29.6574365343
  H         9.8686676803        4.7209163929       31.2091467584
  H         9.5947592764        6.3250740015       31.0691220182
  H        11.5944373549        5.3117051654       34.3131887088
  H        10.0250593577        6.1227112267       33.6958774051
  H        10.5082872251        4.3989242730       33.4509827615
  C         9.9684159959        5.5331789670       28.6298777568
  H        11.5888580044        4.5710473722       29.6735966583
  H        11.8212441949        6.4219893499       29.4909224787
  C        10.5359559722        5.5134388964       27.2415547400
  H         9.3687421387        4.6185036831       28.8853352581
  H         9.3046017555        6.4081387412       28.8127732509
  C         9.4465769887        4.8636433832       26.2661281826
  H        11.4193900182        4.8008989136       27.3245170452
  H        11.0051066624        6.3883371668       26.8108614320
  C         8.3057113088        5.8941225709       25.9646012021
  H         9.8859650469        4.4172482719       25.3987842984
  H         9.0806604117        4.0229022518       26.7828828014
  C         7.1433205686        5.0617013385       25.2669783883
  H         7.9346693157        6.2367300787       26.9249892195
  H         8.5857484974        6.7530499316       25.2979111770
  C         6.8280876584        3.6958011941       25.9269872375
  C         7.6311871718        4.3916545378       24.0310170581
  C         5.8546658357        5.9345447478       25.2555908585
  C         6.9758356491        2.6540088170       25.0218950748
  C         6.2834342199        3.2734999336       27.1655366824
  C         7.4671188902        3.0721898789       23.8767571497
  C         8.1012100592        5.0430976794       22.9031273865
  H         6.1457904668        6.7311003756       24.4588888079
  H         5.5418586664        6.5420836798       26.0876837239
  C         4.6077430808        5.2434214758       24.5932139442
  S         6.5981081149        1.1506145416       25.8312397621
  C         6.3114228561        1.9125070188       27.2876213223
  H         5.9318683551        4.0038828152       27.8587223360
  C         7.8328016639        2.3641754286       22.6867164667
  H         8.2389102230        6.1423734129       22.9411624029
  C         8.5340807809        4.4260184337       21.8140374649
  H         4.9209602611        4.8876585200       23.6274221456
  H         4.4758934896        4.3560243957       25.1843019123
  C         3.3163180180        6.1455524195       24.5632688307
  C         5.8927224528        1.2198306347       28.5278891097
  C         8.3863672742        3.0740729459       21.6587804017
  H         7.6669292484        1.2859924550       22.6795353452
  C         8.9052497445        4.8139870042       20.5228410105
  H         2.6041618450        5.6745336858       23.8630633559
  H         3.5495495186        7.1149812388       24.1532413292
  C         2.6922253232        6.3705675907       25.9345357869
  C         5.9502504566       -0.1591025199       28.7844510444
  C         5.5382203825        2.0240846049       29.7754145681
  C         8.9040328231        2.3499808960       20.4563964714
  C         9.1717125745        3.7244015212       19.7337953557
  S         9.1675805370        6.3076749914       19.7005869018
  H         2.1875492987        7.2690495346       25.7895561045
  H         3.5955827871        6.4483180502       26.5419564034
  C         1.7502182086        5.2393257030       26.3265618054
  N         6.1315022133       -1.1583526583       27.7716287903
  C         5.5168992513       -0.7554209646       29.9833375599
  C         5.2771612105        1.4194942756       31.0450164581
  H         5.3616221049        3.0451328986       29.7196678039
  C         7.8650904639        1.5342431670       19.6661710117
  C        10.1919593396        1.5178344266       20.7207774440
  C         9.4750599779        4.0968751295       18.3935176259
  C         9.5360961379        5.4459704829       18.2808211587
  H         1.0755167123        5.0856995163       25.5518172556
  H         2.3134922097        4.3782322464       26.4962443928
  C         0.9920184029        5.3620447651       27.6559496594
  S         6.0959313699       -2.5648169930       28.4439952580
  N         5.6293699045       -2.2198083541       29.9565217837
  C         5.2700714913       -0.0791515676       31.1959162957
  H         5.1237234084        2.0672376635       31.9265441642
  H         7.5143897234        0.7365242389       20.3218180993
  H         8.2079087329        0.9597605392       18.8041171056
  C         6.6502197488        2.4097275910       19.1903660613
  H        10.5013018720        1.2301423625       19.7686471118
  H         9.7751939209        0.7419485978       21.3278950449
  C        11.3325697780        2.2512427188       21.3111288063
  H         9.7711029478        3.2899940616       17.7543204838
  C        10.0463989116        6.1786108993       17.0384980884
  H         0.4772158683        4.3484881750       27.6722899825
  H         0.1232103625        6.0253445246       27.6309435418
  C         1.9155476930        5.7793713302       28.8512571931
  C         5.0301554875       -0.7470598999       32.4317768483
  H         6.7473357381        3.1321820427       18.4751622781
  H         6.2660492844        2.8910704027       20.0775306053
  C         5.3797522041        1.5440255050       18.7636429374
  H        11.1568046609        2.3773311925       22.3895189358
  H        11.5767114651        3.1921297912       20.9072483362
  C        12.6464883784        1.4144909226       21.1155943101
  C         9.9987081552        7.5991191669       16.8427758273
  C        10.2638171877        5.4058768762       15.8324093233
  H         2.6874662253        5.0199205242       28.7428703160
  H         2.2666268190        6.8482846822       28.6931610445
  C         1.0943454205        5.7235950946       30.1682258497
  H         4.7396975368       -1.8511090093       32.2809565325
  C         4.8553599146       -0.3701561870       33.7869267539
  H         4.8596050120        1.1454887187       19.6295397909
  H         5.7826222069        0.6142346528       18.2508048212
  C         4.5058582701        2.3825903359       17.8354712540
  H        12.6147793645        0.4450101480       21.5862587437
  H        12.9432165186        1.2639199545       20.0386740392
  C        13.7750618708        2.1736756274       21.8451777711
  N         9.4518545295        8.4840306150       17.7241620685
  C        10.2545265999        8.2330554660       15.6261529312
  C        10.6284941079        5.9863441872       14.5953372840
  H        10.4974661788        4.3265471108       15.8713033680
  H         1.6266819268        5.6831125489       31.2382736545
  H         0.3387226816        6.3544290447       30.3508728413
  H         0.5191987313        4.7556630530       30.1270606858
  S         4.7306710177        1.2936874291       34.3566871387
  C         4.5458759498       -1.3861313372       34.8294276724
  H         4.3698848126        3.3799419638       18.2982471629
  H         5.0418859456        2.5870039108       16.8643934110
  C         3.1041522629        2.0738124083       17.7158195486
  H        13.3946639238        2.6499071492       22.7647764968
  H        13.9934798674        2.9877224796       21.1382139437
  C        14.9423793612        1.3167547286       22.4067404240
  S         9.5968550265        9.9999867190       17.1781682675
  N        10.0590941943        9.5491762601       15.6769538451
  C        10.6601776738        7.5047255270       14.4890788094
  H        11.1311564338        5.3259888450       13.9210121720
  C         4.2882602624        0.5324940507       35.8829492568
  N         4.3151909916       -0.7909398530       35.9886279353
  O         4.6014510406       -2.5719993531       34.5424441404
  H         2.7874587056        2.6152517249       16.8782233579
  H         2.5930885026        2.4783702375       18.6319143977
  C         2.9933842684        0.5386644955       17.5262177461
  H        14.6276985145        0.4589144556       22.9968077407
  H        15.4876381880        0.9125918370       21.5169608391
  C        15.8409387660        2.2850353615       23.2561957238
  C        10.8628872965        8.3196014011       13.2748454640
  S         3.7318883448        1.3486369744       37.3307202778
  C         4.3712352639       -1.6428743794       37.2437044319
  H         2.1178844347        0.5900171500       16.9533412900
  H         3.7612937263       -0.0497854169       16.9635094058
  C         2.3559441832       -0.2920342211       18.6639583869
  H        15.2603227654        2.3215336209       24.2366144080
  H        15.8012286765        3.3064539393       22.8926916002
  C        17.1819955029        1.8380135482       23.7669048050
  H        10.9193242290        9.3822142336       13.3138649032
  C        11.1743606934        7.8869068555       11.9692549433
  H         3.7611182960       -1.3117202474       38.0067119012
  H         4.0494793292       -2.6371633420       36.9751205782
  C         5.7704231932       -1.6752208305       37.8414939070
  H         1.2884257067       -0.2485974864       18.5704714345
  H         2.3875260178        0.0538028199       19.6654413357
  C         2.7367960636       -1.7863239848       18.5143445334
  H        17.5666057114        2.3935938452       24.5190994672
  H        17.1700817342        0.8327988903       24.2874942950
  C        18.1911724555        1.5815986751       22.5378069441
  S        11.5671198625        6.2271236622       11.4029057197
  C        11.6720707797        8.9462841049       11.0030565183
  H         5.8251443017       -1.0417908239       38.6795681100
  H         6.0610104921       -2.6328555742       38.3146763166
  H         6.5557255056       -1.3914467275       37.0958282049
  H         2.8319767764       -2.2383989354       19.4625436198
  H         3.6550114650       -2.1765133048       18.1848408901
  H         2.0120351737       -2.2615212022       18.0986497060
  H        19.1355828639        1.4669759013       22.9520849926
  H        18.2829732989        2.5148674254       21.9639265141
  H        17.8396080008        0.8158545617       21.7732353512
  C        12.2483088820        7.0399980546        9.9776018904
  N        12.2748321987        8.4083467934        9.9576913751
  O        11.5154562148       10.1438152153       11.1637597354
  S        13.0064261374        6.1725276636        8.6827869067
  C        12.6115842745        9.1938071902        8.8009251087
  H        12.6494778806       10.2501746766        9.1258410657
  H        13.6913103846        9.0394865993        8.4411155260
  C        11.4567520453        9.1291922125        7.7539441301
  H        11.7458763509        8.8482591489        6.8208191530
  H        10.4462684619        8.7521638418        7.9778489442
  H        11.2360049800       10.1979710247        7.6185904648
  H        -3.9067555483       12.9055119614       16.4148920279
  C        -2.8533362636       13.1917774503       15.9760842828
  H        -2.5481162729       12.2845010005       15.5372020372
  C        -1.9762425631       13.8516137135       17.1239105325
  C        -3.0697419090       14.2434278763       14.8319604399
  C        -2.4173633417       13.4244613767       18.4602782193
  H        -0.8787410323       13.6447790025       17.1688084941
  H        -2.0568167140       14.9641313862       17.2329161400
  H        -3.4471413699       15.2468313557       15.2372411754
  H        -2.2905203611       14.3772920510       14.1535029486
  H        -3.9813433507       14.1352515179       14.2723042749
  C        -1.5051435603       13.6774783237       19.5982234840
  H        -2.6591629041       12.4135996557       18.2773533473
  H        -3.4599461020       13.7711477196       18.6739649974
  C        -2.1458775341       13.6017349914       20.9835824836
  H        -0.7950608475       12.8477259881       19.4331101370
  H        -1.0821159524       14.6478893759       19.5981236837
  C        -1.3591367692       12.8720873118       22.0627846174
  H        -3.1873211817       13.3205993045       20.9318762026
  H        -2.2728127200       14.6676214862       21.4236591028
  C        -0.1362460830       13.6671403280       22.4610457598
  H        -1.9743987095       12.7456201168       22.9568244323
  H        -0.9895939390       11.9245239669       21.6563244433
  C         1.0076877417       12.8789405615       23.2184648253
  H         0.3353977719       14.0826834019       21.5341098632
  H        -0.3580144564       14.4600308753       23.1503669505
  C         1.3844760675       11.5579617675       22.5749027906
  C         0.6249629398       12.1096602362       24.4390093331
  C         2.2152978673       13.7961513617       23.5486876086
  C         1.2390815006       10.4162747081       23.3656316291
  C         1.9506291719       11.2367096827       21.3558308578
  C         0.7391055203       10.7607499886       24.5712377231
  C         0.1372882770       12.8345541127       25.5629233404
  H         2.5637085898       14.1807583617       22.5976996839
  H         1.9860433747       14.6594185808       24.0559694413
  C         3.4704900461       13.0546944706       24.1810404738
  S         1.6391832460        9.0262883694       22.5432812724
  C         2.0303114212        9.8800432784       21.1494850559
  H         2.0080138614       11.9150789451       20.5716674718
  C         0.3481351122       10.1842012558       25.7703888751
  H         0.1654556154       13.9050446661       25.5368754244
  C        -0.1240542540       12.2474401082       26.7208453347
  H         3.8256543518       12.2041535484       23.6495304451
  H         3.0204766599       12.6351477192       25.0699958391
  C         4.7021024572       14.0041982689       24.3472083209
  C         2.2991458705        9.1938673998       19.8164123496
  C        -0.1019926704       10.8923532929       26.8861142188
  H         0.4247054795        9.0960685027       25.8776393933
  C        -0.5817971776       12.6142156048       27.9484339041
  H         5.3025055056       13.5655465315       25.1623968029
  H         4.3737260544       14.9398249593       24.5799555706
  C         5.5261780319       14.1213313456       23.0956834469
  C         2.2192813974        7.8280059375       19.6230206667
  C         2.8901770369       10.0352888366       18.7920737757
  C        -0.6133962589       10.2434696433       28.1376546259
  C        -0.9028120304       11.5769157776       28.7656550867
  S        -0.9207651077       14.1431905251       28.7166166429
  H         6.0796528369       15.0261397537       23.0077796038
  H         4.7634306209       14.2754696878       22.2892745638
  C         6.2769135679       12.9013533879       22.6320933289
  N         1.8868962107        6.8468661749       20.5458371007
  C         2.6118037913        7.2729259183       18.4130869109
  C         3.2544945386        9.4028337063       17.5687293480
  H         2.8685966947       11.0746176494       18.9707852242
  C         0.4089535112        9.3503896170       28.7741004108
  C        -1.9108369131        9.4968610901       27.7786127717
  C        -1.2627012057       11.9558997835       30.1053176429
  C        -1.3584867435       13.3305493922       30.2431356476
  H         7.1572930520       12.5911421051       23.3366860497
  H         5.5563309585       12.0917190137       22.3124042521
  C         7.0865626900       13.2873300134       21.2614812360
  S         2.1039230456        5.3652784108       19.8369741915
  N         2.5508490722        5.8929136825       18.3878397514
  C         3.1114828265        7.9759308721       17.3272656632
  H         3.5092803090       10.0599055502       16.7828258842
  H         0.9729675896        8.9757992382       27.9828129335
  H        -0.1078181300        8.6338997595       29.3448643574
  C         1.3962593016       10.1752712437       29.5713316188
  H        -1.6962754937        8.8039783515       27.0290655244
  H        -2.1419856910        9.1492761276       28.7136879427
  C        -3.0949218100       10.2862286939       27.2037075866
  H        -1.4148074091       11.1027412043       30.7944510681
  C        -1.7400951717       14.1155879797       31.4858461584
  H         7.7243842943       12.4161891576       20.9634639944
  H         7.6953843124       14.1687589471       21.4680490380
  C         6.2555313118       13.6067289574       20.0417519511
  C         3.4128961385        7.3189004473       16.0374768302
  H         1.9075507581       10.9239613343       28.8643790483
  H         0.8414421300       10.5723650430       30.4608684618
  C         2.5812920601        9.3480074902       30.0428532816
  H        -2.6322957500       10.5882958596       26.2781810316
  H        -3.3719997943       11.1633994506       27.6510088851
  C        -4.3906458772        9.4054370974       26.9910590959
  C        -1.6644545897       15.5078475546       31.6935815018
  C        -1.9626326208       13.3187370040       32.7590892264
  H         5.3766155972       12.9044505876       19.9805412581
  H         5.9103566876       14.6664510916       20.0919958749
  C         6.9799464521       13.3353815226       18.6915068410
  H         3.1452042522        6.3536725186       16.0542110986
  C         3.6107545100        7.8498198697       14.8506787756
  H         3.1294661116        8.9625710899       29.1745272154
  H         2.3100936381        8.5681425130       30.6169484007
  C         3.5007982504       10.1976191119       30.8426453173
  H        -3.8999774296        8.5270090552       26.5351036404
  H        -4.8660015436        9.2164561410       27.8814814071
  C        -5.4332962312       10.0608508743       26.0113456555
  N        -1.3950652613       16.4914042534       30.6881716513
  C        -1.9968560767       16.0707892479       32.8800296264
  C        -2.2307211025       13.8714754689       33.9739222414
  H        -2.0925850373       12.2118611993       32.7652709475
  H         6.1666537289       13.5373059393       17.9718637239
  H         7.6959432143       14.1771862215       18.3856489047
  H         7.3325053001       12.3932161179       18.4480896813
  S         3.7517209797        9.4594266860       14.2806930717
  C         3.7811115910        6.8293458674       13.7654308148
  H         3.6949382825       11.2005111447       30.4715750802
  H         2.9943526368       10.4556971352       31.8050593878
  C         4.8418226893        9.5587470580       31.0202977574
  H        -5.8076669978        9.4053641460       25.2786126760
  H        -4.7540485286       10.8093100686       25.4381084425
  C        -6.6709417234       10.5922512638       26.6953423992
  S        -1.4057630946       17.9641710205       31.3858746069
  N        -1.9886003773       17.4600512065       32.8466977900
  C        -2.2616279568       15.3654006889       34.0674220666
  H        -2.5287118162       13.3538668471       34.7992929308
  C         3.9620607971        8.7940842195       12.7103735470
  N         4.0165322316        7.4489621587       12.6039060320
  O         3.6020177826        5.5819332546       13.8455966262
  H         5.5413450170       10.3308129150       31.5316968987
  H         5.2161727236        9.3406702621       30.0745336291
  C         4.7649469393        8.3257191465       31.9240639316
  H        -7.0839298682        9.9009580061       27.3587643332
  H        -6.4154796520       11.5285675133       27.1159749926
  C        -7.7281762351       11.0529791629       25.7422710042
  C        -2.4759766404       16.1916542524       35.2726226720
  S         4.4201615617        9.6673701305       11.2489733064
  C         4.0080575564        6.6746858072       11.3342189439
  H         5.5455653954        8.4025348534       32.6926064577
  H         3.8912755334        8.3180967852       32.6462512655
  C         4.8432498633        6.9677811649       31.1338461397
  H        -7.2221325024       11.5725638786       24.9871196806
  H        -8.4502473251       11.6860990204       26.2527837033
  C        -8.5222639736        9.9048078493       24.9908948010
  H        -2.0396679022       17.2757346933       35.3112175990
  C        -3.0516878595       15.8615961102       36.4636755707
  H         4.7166322368        7.1729342285       10.6767581131
  H         4.4581062149        5.7593588876       11.5433555486
  C         2.6331732973        6.5639389109       10.7757175506
  H         5.8647961665        7.0274544500       30.6821705025
  H         4.0730491150        6.9853555344       30.4410663165
  C         4.8076634808        5.7249852036       32.0551672712
  H        -8.7733027640       10.1564997681       23.9634507512
  H        -7.8672121897        9.0585841734       24.8323430813
  C        -9.8194765436        9.6228332629       25.7667590162
  S        -3.7226065538       14.3743933362       36.9778794323
  C        -3.1092873567       16.8997827895       37.5422875357
  H         2.0914917413        7.5033021712       10.7042169853
  H         2.5142442262        6.0888729350        9.8086391175
  H         1.9546271957        5.9189359669       11.4551836260
  H         4.9288927514        4.7520313795       31.6673029148
  H         3.8352163410        5.6726703514       32.4638065374
  H         5.4511487224        5.8685752271       32.9283395543
  H        -9.4532345413        9.1359071424       26.6157939778
  H       -10.4615749224        9.0326731704       25.0625434381
  H       -10.3386641196       10.4475737872       26.1227308536
  C        -4.2514029815       15.1669695306       38.4739552389
  N        -3.8339821789       16.4120220534       38.5996629000
  O        -2.6159428246       18.0683582803       37.4352676294
  S        -4.9028632690       14.2398588594       39.8538381087
  C        -3.9735137354       17.0865627061       39.8647869103
  H        -4.4449808544       18.1028284102       39.6581791896
  H        -4.6176275486       16.6152379723       40.5895370357
  C        -2.6770256161       17.2515142964       40.6192158556
  H        -2.4484215855       18.3245860401       40.8782955034
  H        -2.5925739472       16.7479820672       41.5697156535
  H        -1.8020919230       17.0704001906       40.0993072020
