352
 i =     7200, time =     7200.000, E =        26.0268173349
  H        11.2252018270        7.3676486325       32.8487907012
  C        11.3460148832        6.3848735774       32.2937306560
  H        12.4312196171        6.4478099184       32.1945598311
  C        10.4243759550        6.4145589726       31.0723247511
  C        10.9747137951        5.3177519467       33.3043971381
  C        10.8304661092        5.6144765565       29.9163372450
  H         9.4121119643        6.2344782419       31.3715087751
  H        10.3002529968        7.4323737044       30.6073942355
  H        11.0782702324        4.3098859118       32.9025889367
  H        11.5944773026        5.4033130324       34.2242443098
  H         9.9230276302        5.4204713730       33.6943695333
  C         9.9176309176        5.7550623542       28.7549626051
  H        10.8924715600        4.5580608002       30.2187478802
  H        11.8208186466        6.0011717193       29.5877687231
  C        10.5805544136        5.6607052643       27.4047776123
  H         9.2341224814        4.8976593504       28.7586176840
  H         9.2314734537        6.5470290278       28.8726971409
  C         9.7035867435        5.0043100378       26.3784580019
  H        11.4726186077        5.0747654283       27.5321390376
  H        10.9346109498        6.6225706862       27.1708060094
  C         8.5011471694        5.8455461383       26.1171496532
  H        10.2447027401        4.7422599741       25.4450799522
  H         9.3862265914        4.0499853926       26.7904032429
  C         7.3039379640        5.1329660084       25.3768749775
  H         8.3066359427        6.3841504119       26.9934001371
  H         8.8147186072        6.6105047474       25.4674249720
  C         7.0541446631        3.7892684692       26.0688635978
  C         7.8934350713        4.3971347577       24.2369004179
  C         6.0267277235        5.9491710413       25.2231900753
  C         7.3511264837        2.6802120457       25.3269994405
  C         6.3608096542        3.4240990958       27.2348001116
  C         7.8381697681        3.0523422806       24.1155146808
  C         8.3624642138        5.1532209265       23.1324344360
  H         6.2267000841        6.6415717929       24.3376076037
  H         5.9967236704        6.5758773310       26.1388621549
  C         4.6773526009        5.2846373548       24.8879913992
  S         7.0499562007        1.1982327098       26.1085453375
  C         6.4174601580        2.0829121968       27.3945534939
  H         5.9835062428        4.1763175698       27.9018812660
  C         8.2468199214        2.4006486804       23.0078111513
  H         8.2403490356        6.2582775177       23.0597262870
  C         8.7451991127        4.4797246426       21.9588901164
  H         4.9422002508        4.8950258855       23.8932546163
  H         4.5691220857        4.3459600740       25.5358343955
  C         3.3936425914        6.2117615015       24.8535912992
  C         6.0306845176        1.3866867052       28.6620219901
  C         8.5979482890        3.1376708243       21.8325243339
  H         8.3887745960        1.3494805419       22.9176020674
  C         9.0430084009        4.8574716302       20.6504128893
  H         2.6430680268        5.6025385950       24.2018009415
  H         3.5547195642        7.2041786274       24.3608981840
  C         2.8478557763        6.5934626166       26.2617476063
  C         6.0740833006       -0.0315714007       28.8835901601
  C         5.4555515853        2.2075743571       29.7822735341
  C         8.8706488129        2.4507962648       20.5468646991
  C         9.0774342121        3.7249575248       19.7899371686
  S         9.3587593425        6.3104301026       19.8762031524
  H         2.2801326287        7.4677197361       26.2287870495
  H         3.6499186757        6.8216326941       26.9588794011
  C         2.1148136096        5.3566773071       26.6470998547
  N         6.3517640196       -1.0016820275       27.9335805914
  C         5.9255285408       -0.5550105065       30.1602306784
  C         5.2807635930        1.6772237607       31.0708429732
  H         5.2394097008        3.2210851339       29.6638502433
  C         7.6640551492        1.5795695714       20.0029677829
  C        10.2180994068        1.6098153276       20.5187069540
  C         9.4033391888        4.1046899015       18.5081544011
  C         9.6741992096        5.4228991993       18.3945352488
  H         1.3366849191        5.1621889590       25.9164215902
  H         2.8113608879        4.4968566897       26.4671806611
  C         1.3662637152        5.4068799776       27.9998859597
  S         6.4250551766       -2.4617702445       28.6576596972
  N         5.9954697920       -1.9647404501       30.1767906506
  C         5.5166455007        0.2094674933       31.2558971568
  H         4.9860909961        2.3144711233       31.8602163136
  H         7.5456737510        0.9052100281       20.8642449176
  H         8.0428589832        1.0169048054       19.2206989674
  C         6.4244320025        2.2753041835       19.4239055806
  H        10.3708044751        1.1220366959       19.5650180930
  H        10.1659891619        0.7397578445       21.1955385612
  C        11.4844022888        2.4822740941       20.9362522437
  H         9.4261585440        3.3457055257       17.7505340715
  C        10.0436886989        6.1667740722       17.1410020871
  H         0.7432579346        4.5350124871       28.1085014187
  H         0.6322703292        6.2336948483       27.8971973392
  C         2.1999038170        5.6686100146       29.2598369857
  C         5.1998121227       -0.5396188730       32.4515657727
  H         6.9223408391        2.8379419626       18.6271974138
  H         6.0247206258        2.8826145705       20.1624546469
  C         5.4610902712        1.2732645392       18.7511349248
  H        11.3543699692        3.0630928765       21.8873118555
  H        11.5377307469        3.2641215125       20.1794052468
  C        12.7327146517        1.6861218505       21.1210872813
  C        10.1251529239        7.5567963892       16.9689692723
  C        10.2614581280        5.3966379327       15.8920740492
  H         2.9706430350        4.8481518594       29.4370238873
  H         2.6896432247        6.6492547388       29.0341453602
  C         1.4900590115        5.6908128248       30.5885703530
  H         5.0527028489       -1.5474784091       32.2190125645
  C         4.9362988933       -0.2381412402       33.7447349404
  H         5.5459414809        0.2877759853       19.3070899548
  H         5.8054108106        1.0126566559       17.7271312740
  C         3.9962748415        1.7999530131       18.8276102966
  H        12.5774670845        0.8736613759       21.8808447509
  H        13.0461385089        1.1715871309       20.2235511951
  C        13.8303049067        2.6436376910       21.5488298689
  N         9.8887394438        8.5318517271       17.9844016062
  C        10.4272126809        8.1631142987       15.8008664316
  C        10.5820058390        5.9109332845       14.6401137088
  H        10.1373982258        4.2673614259       15.8654194359
  H         0.4522306974        5.6327461791       30.3501742410
  H         1.7416385200        4.8039802167       31.1996414738
  H         1.5544967266        6.6893339488       31.1539286221
  S         4.6802155595        1.2772437507       34.3456231029
  C         4.8084171620       -1.3621958872       34.7684894130
  H         3.9332959425        2.5237392062       19.5483035802
  H         3.8397505568        2.3204057249       17.8970140358
  C         3.0114970628        0.7066354690       19.1817220945
  H        13.4593584294        3.2169790651       22.3686614595
  H        14.0273088826        3.3466506535       20.6981685754
  C        15.0699985506        1.9184776127       21.9766808644
  S        10.0692972461       10.0532591787       17.3771876094
  N        10.4700244460        9.5786688364       15.8420368036
  C        10.7539972929        7.4163364481       14.6373897647
  H        10.6067224296        5.2010234821       13.8534155120
  C         4.3531783760        0.5226246828       35.9025374765
  N         4.5109726282       -0.8046248953       35.9505347943
  O         5.0036626998       -2.5620907270       34.4895812902
  H         2.2361731578        1.2862289021       19.6711884051
  H         3.4504250301       -0.0224963746       19.9403002466
  C         2.5481955213       -0.1326869056       18.0605238865
  H        14.8827799614        0.9806256012       22.4132915635
  H        15.8010961075        1.7881269435       21.1552554343
  C        15.8885359243        2.7478589131       22.9936681287
  C        11.1107106101        8.1805495415       13.4807401442
  S         3.9747755674        1.3606965125       37.4342907397
  C         4.5166188569       -1.5374370851       37.1881132932
  H         1.5117631748       -0.5186885010       18.1148219035
  H         2.4941759791        0.3265827817       17.0615826452
  C         3.3561753899       -1.4580060617       17.8901492458
  H        15.2992384095        2.9122073087       23.9065194740
  H        16.3086143658        3.6760076285       22.6802629061
  C        17.1610609911        1.8888293989       23.4103514180
  H        10.9099307769        9.1397724984       13.6140852726
  C        11.6619478401        7.8467255327       12.2690401157
  H         3.7765449619       -1.3086373732       37.8716272887
  H         4.2607761317       -2.6320832995       36.9789669264
  C         5.8961949847       -1.4856269623       37.8916337136
  H         3.4501835546       -1.9810720796       18.8212381358
  H         4.2332133974       -0.9779751471       17.4710223414
  C         2.7260986005       -2.2963759117       16.8623938557
  H        17.8269786018        2.4378473150       24.1094998441
  H        16.9648025137        0.8596871637       23.9453184390
  C        18.0234253204        1.6511333618       22.2346264806
  S        12.2735019021        6.2749226809       11.8986934623
  C        11.7155188028        8.8104564437       11.1964538821
  H         6.0467489037       -0.5624501014       38.5213959047
  H         5.9770627188       -2.2832556742       38.5506589010
  H         6.8150969296       -1.5951128745       37.2773065530
  H         1.8021938828       -2.7863729842       17.2042170654
  H         3.4738372813       -3.0803916172       16.5942787873
  H         2.5397777898       -1.7700288727       15.9498853054
  H        19.0584215292        1.3467141126       22.4490944842
  H        18.0777942263        2.5432396888       21.6782492016
  H        17.6586512290        0.8684311115       21.6627631582
  C        12.6888906940        6.9200153853       10.3120508295
  N        12.3258622637        8.2459001850       10.1394472555
  O        11.2226802174        9.9498559647       11.1877548331
  S        13.3677637442        5.9483526056        9.0262914309
  C        12.3576839063        8.9220214828        8.8167845123
  H        12.6580075139        9.9350193459        9.0632506456
  H        13.0632224337        8.4358793069        8.1283480504
  C        10.9573993643        8.9865085654        8.1406716193
  H        10.1960835914        8.2470188811        8.5299818998
  H        10.4488432652        9.9766866615        8.0485761020
  H        10.9853538547        8.8346195000        7.1551788090
  H        -2.6838474744       14.8920215974       15.7226312392
  C        -2.6265574318       13.8687596834       16.0827890275
  H        -3.5881358723       13.7962125182       16.5998058693
  C        -1.5093447736       13.7970323204       17.1893927657
  C        -2.5683633586       12.8729678919       14.9328326249
  C        -2.0694551586       13.5147683349       18.5555661044
  H        -0.7165864898       13.1262585970       16.8563787923
  H        -0.9380565959       14.7535917883       17.1181474387
  H        -2.4433352652       11.7987909754       15.1893508985
  H        -3.4635073886       12.7259341750       14.4018308506
  H        -1.8435608090       13.2483033148       14.2171782571
  C        -1.0698967642       13.5193126691       19.6854856503
  H        -2.6682998774       12.6186199007       18.6981764238
  H        -2.7508395153       14.3309746813       18.7800760708
  C        -1.8865769368       13.7006708503       20.9915189197
  H        -0.6368803916       12.5838980992       19.7480895908
  H        -0.3821033239       14.3482795581       19.5725948382
  C        -1.2067758259       13.1346906268       22.2449644757
  H        -2.8150407554       13.2129510641       20.9478480427
  H        -2.1118783107       14.7539882210       21.1286510959
  C         0.0352481341       13.9106440219       22.6944011233
  H        -1.8874395689       13.2913373857       23.0718616660
  H        -1.0304346408       12.1364106872       22.2502203317
  C         1.1162396517       13.1171003633       23.4679244483
  H         0.6105964147       14.0862034390       21.8120465409
  H        -0.2182003456       14.8446674076       23.2767762245
  C         1.4484899586       11.7336469629       22.8036979092
  C         0.6686031070       12.4076054640       24.6854287848
  C         2.3646183090       13.9395535488       23.7300863093
  C         1.1274195334       10.6372255770       23.5886107267
  C         1.9959419337       11.3375068405       21.5739920532
  C         0.5818870306       11.0877519216       24.8116557541
  C         0.2949237130       13.1143021950       25.8263315527
  H         2.6480026206       14.4080429455       22.8330800803
  H         2.1757310480       14.8368063570       24.3096577645
  C         3.6250122621       13.2648479943       24.2803876389
  S         1.4560685965        9.0881071955       22.7692571501
  C         2.0979595132       10.0294571027       21.4089761858
  H         2.3831130616       12.1559959766       20.9885788686
  C         0.1713680347       10.5098792075       25.9454720175
  H         0.4813369221       14.1407691325       25.8014742435
  C        -0.1882769296       12.5615348663       26.9398557789
  H         3.8377825598       12.4148433845       23.6952561525
  H         3.3540536825       12.8684219659       25.2879042926
  C         4.8530010757       14.1862736305       24.3824518157
  C         2.4552525267        9.3589348325       20.1026017825
  C        -0.1886419205       11.2521730424       27.0610077049
  H         0.0783795526        9.4294883415       25.9926368350
  C        -0.6136871314       12.9298633978       28.1714211228
  H         5.5288805448       13.9620248512       25.2246635401
  H         4.5443462559       15.1742505849       24.7237293240
  C         5.5288240788       14.1893244489       22.9916185972
  C         2.5030321114        7.9689474454       19.8035340710
  C         3.0478824072       10.2308686304       19.0095812612
  C        -0.6629613639       10.4923829919       28.2877383957
  C        -0.9847174833       11.8307016364       29.0026552899
  S        -0.8727061030       14.3701659847       29.0414985636
  H         6.1679052997       15.0760092458       23.0101283543
  H         4.8357705463       14.3884533775       22.2338986428
  C         6.4706568535       13.0465222288       22.7780428435
  N         2.1086687821        7.0076753142       20.7589790231
  C         2.8853332639        7.4237993923       18.6371611511
  C         3.3413378714        9.6938877360       17.7318944238
  H         3.1385330465       11.2871715690       19.1549074006
  C         0.4541739080        9.7392422329       29.1065267106
  C        -1.9372063932        9.7454781237       27.9682641758
  C        -1.4243317917       12.1870086775       30.2861495114
  C        -1.4233332278       13.5601633024       30.5001302659
  H         7.1855455578       12.7919294578       23.6071292606
  H         5.8760954830       12.2067373262       22.5490412341
  C         7.3958414399       13.3726452619       21.5355019864
  S         2.0610690214        5.5931546424       20.0492146526
  N         2.5740458447        6.0497275631       18.5676955610
  C         3.2617205804        8.1861498143       17.5114522739
  H         3.6003189480       10.2863109832       16.9018835648
  H         0.8221282576        8.8788797386       28.4917756082
  H        -0.0847054617        9.3757740663       30.0123916559
  C         1.7597919166       10.5295888329       29.5034470416
  H        -1.8570917940        8.7308257943       27.5402063498
  H        -2.3875944291        9.6054418663       28.9669725636
  C        -3.1310046991       10.5915128019       27.2464083101
  H        -1.6132675773       11.4967246292       31.0215188746
  C        -1.5783967723       14.2835505007       31.8053096715
  H         8.2751506251       12.6931676793       21.5179286546
  H         7.7153082799       14.4228405199       21.6217295039
  C         6.5217855635       13.1500492908       20.2820497744
  C         3.5393971754        7.5296011914       16.3220200902
  H         2.0861050542       11.2994600329       28.7309341956
  H         1.4721758917       11.1749108459       30.3855657545
  C         2.8143639984        9.6072613876       30.0775668983
  H        -2.8046258529       10.8559584824       26.2542249767
  H        -3.2297824585       11.5587047219       27.6856650656
  C        -4.3855886005        9.8432646227       27.0461331734
  C        -1.5607477200       15.7235665376       31.9692082688
  C        -2.0795732314       13.4970891732       32.8957681805
  H         6.0804095440       12.2522658460       20.4483745894
  H         5.7408095871       13.8657853218       20.1367700620
  C         7.4051061058       13.2037159353       19.0556212788
  H         3.6003054629        6.4647827933       16.4605497599
  C         3.7284287204        7.9522155190       15.0356489620
  H         3.5748462877        9.3801323502       29.3251384518
  H         2.4020061676        8.6301478039       30.3017089139
  C         3.6092512445       10.3100654859       31.1241371215
  H        -4.1225309208        8.9450095954       26.4375908849
  H        -4.5324384700        9.5203110925       28.0412613491
  C        -5.4620797497       10.7283779770       26.4901560095
  N        -1.2269750606       16.6240159749       30.9537854476
  C        -2.0141244957       16.2948861254       33.1515153441
  C        -2.3442387093       14.0728173030       34.1671993756
  H        -2.1518807202       12.3678960792       32.7845141112
  H         6.7571029411       12.9196630780       18.1656606998
  H         7.8974246202       14.1341466512       18.8293560492
  H         8.2154498966       12.4735554310       19.2025755655
  S         3.9077176992        9.6453375868       14.5367205516
  C         3.9267595150        6.9469002108       14.0392176470
  H         3.8607988895       11.3226659472       30.7726581314
  H         2.9863715872       10.3902728466       31.9747205882
  C         4.9316676000        9.5955212210       31.4806706765
  H        -5.6794900317       10.2612125940       25.5197177083
  H        -5.0647561589       11.6928536349       26.3272270234
  C        -6.6577469447       10.7461275855       27.3384993929
  S        -1.3698386974       18.0619003482       31.5966600708
  N        -1.9516291993       17.6875681097       33.0874676263
  C        -2.4046023439       15.5635684042       34.2699585840
  H        -2.4782511219       13.4178541149       34.9690169505
  C         4.2608186037        8.9028783584       12.9389296718
  N         4.3209397629        7.5805872922       12.9026812883
  O         3.7602294227        5.7062778562       14.2468716790
  H         5.5733788778       10.2818669861       32.0228525753
  H         5.4313917689        9.4489008053       30.5973647102
  C         4.8348597098        8.3287402646       32.3280348783
  H        -6.7230083261        9.7861412493       27.7742330468
  H        -6.5211768251       11.4955285296       28.0700794472
  C        -7.9962890249       11.0252396882       26.6316286518
  C        -2.6867340509       16.2641954250       35.4851949377
  S         4.9160922340        9.7179498621       11.6192095826
  C         4.5243055995        6.8212850793       11.6933979730
  H         5.6097562096        8.3185355252       33.0691091494
  H         3.8713123443        8.4458048404       32.8561045924
  C         4.9125012687        7.0483606111       31.4599673491
  H        -7.8189949710       11.6599164473       25.7794210901
  H        -8.6953162252       11.6502473262       27.2882716509
  C        -8.6834832694        9.7377318207       26.0432145413
  H        -2.7154897257       17.2792461835       35.4129209111
  C        -3.1388865176       15.9716996489       36.7578340544
  H         5.2793458927        7.3133356320       11.0366718390
  H         4.9639356087        5.8389071186       11.8481924246
  C         3.3202054698        6.8173701264       10.7976200248
  H         4.2624668293        7.1959035498       30.5530415619
  H         4.5345048959        6.3157686815       32.0616980737
  C         6.3865740812        6.6258685523       31.0505804956
  H        -7.9031948661        9.2853231819       25.3601613336
  H        -9.0030984977        8.9333575037       26.7996674373
  C        -9.7847840202       10.0143542005       25.1000852453
  S        -3.7035867492       14.4312445950       37.2491621269
  C        -3.3183399179       17.0145145816       37.7206451226
  H         3.5825255864        6.1607709809        9.9132238590
  H         2.3998594711        6.4521186011       11.3523836816
  H         2.9368220514        7.8091422936       10.5035415274
  H         7.1247109806        6.8616214666       31.8237379550
  H         6.5636226785        7.1563589145       30.1292543367
  H         6.4873677000        5.5557965667       30.9194828072
  H       -10.2696955085        9.0753404191       24.8069486918
  H        -9.5224991654       10.4809559993       24.1743061036
  H       -10.5814168549       10.5361530793       25.6126610766
  C        -4.0555696891       15.1201238182       38.8153562313
  N        -3.8186176442       16.4706856641       38.8185138720
  O        -2.9346834876       18.1907110855       37.5553030079
  S        -4.9253232381       14.4506955416       40.0999833613
  C        -4.1010832884       17.2987028518       39.9926205325
  H        -4.2273051431       18.3023322916       39.6571223313
  H        -5.0163890392       16.9497746339       40.4895764520
  C        -2.9244931912       17.3420602827       40.9925405594
  H        -2.2139484644       16.5028001852       40.7399873788
  H        -2.3580722308       18.2263563226       40.7084412213
  H        -3.2174878296       17.3968375293       41.9894655640
