352
 i =    62800, time =    62800.000, E =        25.1762972870
  H         9.8137717197        4.8609982432       31.4765664941
  C        10.1634007881        5.7347066787       32.1088454921
  H         9.2750996314        6.1611504740       32.4608485481
  C        10.8154045924        6.7834839994       31.1893910181
  C        11.0635586447        5.3499550744       33.2462678588
  C        11.1553905793        6.0692116909       29.8958197553
  H        10.1508177050        7.6147327911       30.9917673385
  H        11.6665389611        7.1799918337       31.7042023296
  H        10.6334439245        4.5642207354       33.8092185112
  H        11.9916188879        4.9480502259       32.7934843166
  H        11.3438066426        6.0774763517       33.9538943603
  C         9.8996325493        5.7134881570       29.0773609764
  H        11.6002940762        5.0892122299       30.1075621018
  H        11.8958334052        6.6965754979       29.4466115754
  C        10.2771213055        5.8848448053       27.5762710594
  H         9.7712060830        4.5873601590       29.2646511307
  H         9.0897759389        6.3836374547       29.4035087808
  C         9.4722776010        5.2052254515       26.5222813933
  H        11.2653442702        5.4280468155       27.5345182358
  H        10.4134842321        6.9391463473       27.3745099833
  C         8.1255598471        5.8368748806       26.2473337581
  H         9.9987802484        5.0730213408       25.5660287697
  H         9.3179796092        4.2024332955       26.8308565150
  C         7.1904743777        4.9918864173       25.3248035408
  H         7.6036670985        5.9194488201       27.2642290212
  H         8.2651975689        6.8693682000       25.9272793757
  C         6.9245395350        3.6825613310       26.0160366948
  C         7.7963765304        4.2332215347       24.1829241676
  C         5.8653069208        5.6650257262       24.8591532407
  C         7.1600936395        2.6011835239       25.1954146499
  C         6.5314852307        3.3637100551       27.3453755935
  C         7.7194378321        2.9203682355       23.9711428054
  C         8.2701942393        4.9578573838       23.1404659080
  H         5.5919740300        4.9309857366       24.1451475326
  H         6.0331970528        6.5924933518       24.3507872035
  C         4.6675683619        5.7097983337       25.7609042241
  S         6.7307924039        1.1467054082       25.9962115436
  C         6.3325932977        2.0398071294       27.4643977937
  H         6.4166287860        4.1302112291       28.1041020400
  C         8.1469094203        2.3320428364       22.8348702123
  H         8.2038639548        6.0651248615       23.2018802844
  C         8.7910950465        4.4332326706       21.9609790264
  H         4.5935868658        4.7784515848       26.3250092854
  H         4.7715511582        6.5196719335       26.5081308361
  C         3.3932289225        5.9981893291       24.9901445384
  C         5.7131469955        1.3713904150       28.5980934600
  C         8.6877300765        3.1055573565       21.7686383224
  H         8.1849157317        1.2726514697       22.8102721140
  C         9.2249095915        4.8518650608       20.6658329283
  H         3.3072009606        5.2220870414       24.2714095323
  H         3.5573355877        6.9578825820       24.4309683943
  C         2.1871842848        6.2357030478       25.7854746464
  C         5.7012597969       -0.0194157756       28.8330693028
  C         5.3967553041        2.2016289888       29.7232690123
  C         9.0842972125        2.3663991906       20.4982022305
  C         9.3524814209        3.7642851771       19.8448577375
  S         9.2253208848        6.3454589957       19.8391672675
  H         1.5402812611        6.8226558538       25.1081949299
  H         2.4094790515        6.9283148240       26.6396863839
  C         1.4779821772        5.0062246385       26.3333290368
  N         6.1386278171       -0.9743608791       27.8947927765
  C         5.3133751078       -0.6308574677       29.9838051118
  C         5.1198518616        1.5795108485       30.9719625271
  H         5.4705448184        3.2206789987       29.7147563741
  C         7.9083292572        1.5548362679       19.9513678369
  C        10.3093606957        1.5177821607       20.7535843822
  C         9.6005278109        4.1465379131       18.4586706534
  C         9.6758043197        5.4895764863       18.3330741243
  H         0.6044573672        4.7479580048       25.6787826581
  H         2.0624519929        4.0823523800       26.3545714503
  C         0.9884164643        5.1975439855       27.7624320097
  S         6.1986005056       -2.3829342627       28.5570011034
  N         5.4534699496       -2.0115875426       29.9991609066
  C         5.0571754960        0.0873518862       31.1598215412
  H         4.9229359283        2.2369906426       31.8471012884
  H         7.6787379461        0.7329938731       20.5773624931
  H         8.0193657553        0.9361925735       19.0851578169
  C         6.6723766971        2.4647576683       19.6936837399
  H        10.5725913697        1.0137584406       19.8492812213
  H        10.0791772146        0.7557789773       21.4960009461
  C        11.6306773053        2.3400412603       21.1009530580
  H         9.8146863387        3.3711493975       17.6620853958
  C        10.0765184041        6.2071490710       17.0453895717
  H         0.2428572928        4.3724467231       27.8120766729
  H         0.6025296632        6.1748939505       27.8821046471
  C         2.0134864777        5.0694071447       28.9081247350
  C         4.9725341480       -0.5966040951       32.4572427534
  H         6.7353961170        3.1698455047       18.8516878541
  H         6.4517672832        2.9862518927       20.6216209005
  C         5.4768603069        1.5667605878       19.5419924702
  H        11.3748226088        3.2777611531       21.6771296660
  H        12.1459657805        2.7721336027       20.2381881085
  C        12.8445571455        1.6273050710       21.7214062557
  C        10.1453026593        7.6085063642       16.9352724462
  C        10.3960813415        5.5344199746       15.7767731154
  H         2.4344682599        4.0612089634       28.9861794467
  H         2.9015233391        5.6204277562       28.7241466755
  C         1.4444979483        5.4301170738       30.2320429313
  H         5.1824969535       -1.7048351270       32.3881060767
  C         4.6101036204       -0.2397160368       33.7555696823
  H         4.6230252355        2.2172977458       19.8204332923
  H         5.5379093857        0.8053178803       20.2048714410
  C         5.2314549808        1.0791566893       18.2046121549
  H        12.5791750072        0.7346162384       22.3037318329
  H        13.4701590543        1.2506636403       20.8613863072
  C        13.6949092694        2.5546867553       22.6510006661
  N         9.9057390757        8.5549169842       17.9804358064
  C        10.5071048352        8.2411059555       15.7420786376
  C        10.7529327149        6.1215672624       14.5732571846
  H        10.4203586993        4.4877422596       15.8126663814
  H         0.9727016040        6.4531980850       30.3344904316
  H         0.6228560761        4.7508580313       30.4706459218
  H         2.2843460960        5.2276134827       30.9566738399
  S         4.1479388794        1.3353015492       34.2423266086
  C         4.5594774072       -1.2548783331       34.8638591387
  H         5.2895213919        1.9005319143       17.5262065885
  H         5.9834170328        0.3133193958       17.9094410676
  C         3.8611712708        0.4504792733       18.0155932505
  H        13.3574787192        2.6067271852       23.6554542262
  H        13.9056020832        3.5009564970       22.1708649625
  C        14.9925909283        1.8882496267       22.9722373804
  S        10.0874792040       10.0662695858       17.3967376784
  N        10.4335389099        9.6719595284       15.8132747085
  C        10.7676490295        7.5888116239       14.5554002545
  H        10.8744680899        5.5911376194       13.7080359648
  C         4.0332785684        0.7272685445       35.9311769674
  N         4.1849934547       -0.6642137351       35.9802204274
  O         4.7496261398       -2.4275196404       34.7290669367
  H         3.2079602855        1.3670004503       17.8260760539
  H         3.4969466449       -0.0255248145       18.9307873257
  C         3.7596567629       -0.5675205169       16.9078047890
  H        14.7355784599        0.9317157510       23.3572724105
  H        15.4512880127        1.5848370507       22.0287143643
  C        16.0068658791        2.7107964704       23.8270386600
  C        11.0578918036        8.3184482329       13.3701890842
  S         3.4966986465        1.4745197454       37.3738404497
  C         3.9865659920       -1.4541643917       37.1799294656
  H         3.9308594064       -0.0923666737       15.9135636917
  H         4.4175138198       -1.4033837136       16.8972235288
  C         2.2936984542       -1.1037078466       16.9589992318
  H        15.6494209436        2.9945075666       24.8419456106
  H        16.0873235965        3.6698489002       23.3000058280
  C        17.3244123935        1.9502897359       24.0534453059
  H        10.8442661740        9.4205205234       13.5045573176
  C        11.5433287333        8.0619022731       12.1489457769
  H         3.2086202685       -1.0392165349       37.7518589626
  H         3.5903324661       -2.4855275064       36.9969354070
  C         5.3494278706       -1.5218162381       37.9201044536
  H         1.7570599331       -0.8825929760       16.0559134024
  H         1.6327010465       -0.7678602262       17.7062481267
  C         2.2456836340       -2.6543216177       16.8737833691
  H        17.8630805998        2.5178779998       24.8279291215
  H        17.2492470185        1.0275556836       24.6015197981
  C        18.0355480797        1.8727209613       22.7326693707
  S        12.1759517224        6.5598320538       11.5917819526
  C        11.6774535613        9.1224364778       11.1226965564
  H         5.8788955799       -0.6234070898       38.0907237334
  H         5.2588051806       -2.1034021562       38.8181224798
  H         5.9760683031       -2.2003862904       37.3551545691
  H         2.5534633309       -3.1157505578       17.8534090027
  H         2.6147531811       -3.0435055273       15.8666756808
  H         1.2024044417       -2.9547527678       16.9060845163
  H        19.0580753179        1.6461446630       22.9278910241
  H        17.8475502309        2.8070008115       22.1863713567
  H        17.5837529885        0.9676554925       22.2044893134
  C        12.5358221323        7.3589630174       10.0206970188
  N        12.2699625824        8.6796202630       10.0026974300
  O        11.3223184167       10.2680096082       11.3622091808
  S        13.0695957033        6.5261649389        8.5720964824
  C        12.3337749528        9.5502984788        8.8292925380
  H        12.3476824467       10.5939955366        8.9814435931
  H        13.2347120121        9.4025781272        8.2558859497
  C        11.0349134426        9.2382468438        8.0403445983
  H        10.2981373677        8.6169481511        8.5181270551
  H        10.5071331305       10.1418817358        7.7263567012
  H        11.3487269011        8.8360417579        7.0546130289
  H        -3.1005901848       15.4250953531       16.2241095530
  C        -2.6149154453       14.5114588936       16.2027610264
  H        -3.4758111607       13.8223947784       16.3217462021
  C        -1.6343643811       14.3188026588       17.3189976890
  C        -1.9414145290       14.2175739864       14.9224281268
  C        -2.2871673798       14.5288364800       18.7021654830
  H        -1.2666340635       13.3039915400       17.4628231580
  H        -0.7866803950       15.0360809804       17.2040749833
  H        -1.6305713818       13.2523630430       14.9129855883
  H        -2.6776829202       14.2413449222       14.0659900074
  H        -1.1561993282       14.8777767633       14.6844397449
  C        -1.3724989325       14.0107921086       19.8496707277
  H        -3.1801564675       13.9213645533       18.7248796395
  H        -2.6091988836       15.5378119469       18.7591310510
  C        -2.1478027950       13.9109252647       21.1452328876
  H        -0.8017335202       13.0876311557       19.7560802915
  H        -0.6252016260       14.7796634343       19.8211183361
  C        -1.3784335766       13.2128671001       22.2837258855
  H        -3.0965097684       13.4300881552       20.9917172866
  H        -2.4031572929       14.9264313318       21.4329155588
  C        -0.1178968578       13.9262442684       22.6053171140
  H        -2.0757917757       13.1866481318       23.1065549763
  H        -1.2117089934       12.1150559341       21.8845759169
  C         0.9305397531       13.1535816920       23.4193698355
  H         0.4187356130       14.2654423387       21.7252904836
  H        -0.3447768344       14.8585860813       23.1359131521
  C         1.2921616713       11.8709213023       22.6581145965
  C         0.3518322520       12.3823278324       24.5773183764
  C         2.1961124940       13.9848234686       23.6220095334
  C         1.0461761029       10.7346824519       23.4240755221
  C         1.9719230310       11.5677400325       21.4834189353
  C         0.5087018008       11.0708770762       24.6395650948
  C        -0.1649002539       13.0724761170       25.6643230078
  H         2.2734357004       14.5736769926       22.7414006827
  H         2.1143212970       14.7222289071       24.4052908849
  C         3.5472954612       13.2477866715       23.9733964543
  S         1.3997825601        9.2357491864       22.6730178528
  C         2.1053204064       10.1737735875       21.4143801587
  H         2.2823853133       12.3806719683       20.7992284253
  C         0.0916598342       10.4319352901       25.7691538135
  H        -0.2755721282       14.1288551072       25.4905354003
  C        -0.4604120461       12.3896719953       26.7924758301
  H         3.8325269545       12.6773795263       23.0790522891
  H         3.4684071158       12.4856302517       24.8054803072
  C         4.7307319166       14.1904193028       24.1962910496
  C         2.7002206582        9.4897190334       20.2108867319
  C        -0.4229022773       11.0433098735       26.8661675357
  H         0.0764207272        9.3180684118       25.8068803769
  C        -0.8071366085       12.7320973498       28.0603159813
  H         5.2301448396       13.7543383106       25.0765617413
  H         4.4558499561       15.1542875078       24.4856059958
  C         5.7425819542       14.2911634775       23.0219538848
  C         2.5488487742        8.1654800792       19.8961729744
  C         3.4346598997       10.2830795305       19.1888336385
  C        -0.7505151387       10.2658280483       28.1203604587
  C        -0.8981728268       11.6431100363       28.9088217427
  S        -1.1585561885       14.2463498182       28.8818176926
  H         6.5228372391       15.0179579048       23.2674848733
  H         5.1714268752       14.7644409579       22.1629722198
  C         6.4730893158       12.9738302702       22.5508233205
  N         2.0948347464        7.2198518617       20.7004394616
  C         2.8251074395        7.6882133309       18.6473226085
  C         3.5646770750        9.8695890698       17.8859935121
  H         3.8796597629       11.2050778702       19.5933745211
  C         0.3834870446        9.3190946509       28.6152196105
  C        -2.0709949095        9.5198802847       28.0423628095
  C        -1.3007048628       11.9574419362       30.2041215203
  C        -1.4307950758       13.3102202253       30.3360811548
  H         7.1596393802       12.6441979770       23.3816084921
  H         5.8163758386       12.0398736151       22.5211536639
  C         7.2534067833       13.1324057129       21.3009142349
  S         1.9517558781        5.8286053552       19.9148709392
  N         2.7825602550        6.2685793869       18.6065580675
  C         3.2378867230        8.4296574489       17.5415811021
  H         4.0646901870       10.4740284828       17.1888201001
  H         0.6807415006        8.6415601333       27.8531951755
  H         0.1258992043        8.6709854224       29.4391176103
  C         1.6535722526       10.1576353369       29.0052550871
  H        -2.0564451250        8.6802259552       27.3426374374
  H        -2.3748211329        9.1130103300       29.0557166877
  C        -3.2599097735       10.3147232596       27.4964494770
  H        -1.3453795089       11.1954372222       30.9427928114
  C        -1.7196443655       13.9715438492       31.6641921772
  H         7.9200280740       12.2632865782       21.1694852159
  H         7.8671066662       14.0339199341       21.4017944492
  C         6.4551967165       13.2287243556       20.0188848156
  C         3.4593289209        7.7594893710       16.3183951656
  H         2.0391126774       10.8184304414       28.2811700979
  H         1.4288548077       10.7863290963       29.8247155439
  C         2.7966754628        9.2772317656       29.6393025513
  H        -3.0486638576       10.4938637617       26.3925943465
  H        -3.2709433929       11.2609339551       28.0740358302
  C        -4.5952535354        9.5540523769       27.6251056840
  C        -1.8947632464       15.3525781274       31.8881683935
  C        -1.9614694060       13.0871907666       32.8600166825
  H         5.6262239894       12.4419713420       20.0072753724
  H         6.0261192944       14.3079942090       20.2296916756
  C         7.3477569331       13.1764823950       18.7870980218
  H         3.1177106307        6.7650341168       16.2297252758
  C         3.8219027668        8.2134245974       15.0391926790
  H         3.3387826086        8.5761221491       28.9768066723
  H         2.3032812499        8.5662585719       30.3249154348
  C         3.8769759994       10.1232968496       30.3401108067
  H        -4.5929986152        8.5112651666       27.2057940199
  H        -4.6962243148        9.2663677931       28.6689197787
  C        -5.7950191303       10.3626889318       27.1503059642
  N        -1.5260130972       16.3384078960       30.9552172914
  C        -2.3415651337       15.8562220704       33.0598875302
  C        -2.2882863584       13.6162513395       34.1025690488
  H        -1.7502620261       12.0854333504       32.7168318708
  H         7.3818402120       14.1705212886       18.3529892156
  H         8.3167864015       12.8476497441       19.1575332438
  H         7.1075261996       12.3915352580       18.1201446301
  S         4.3443851213        9.7885524942       14.6222750278
  C         3.9073683076        7.2566135390       13.9327957878
  H         4.1609367397       10.9278910261       29.5959519009
  H         3.4337844061       10.6387996190       31.2183227549
  C         5.1420977699        9.2602566928       30.6579103164
  H        -5.5008761146       11.3720357353       26.7649503931
  H        -6.6285388266       10.5198269473       27.8620023728
  C        -6.4167580098        9.6978226868       25.8686415713
  S        -1.9224141208       17.7802358277       31.5251262684
  N        -2.5409347897       17.2490534434       32.9843104365
  C        -2.5165289376       15.0595171178       34.1924005447
  H        -2.6209778611       12.9454451039       34.9263598012
  C         4.5971564775        9.1532569490       12.9433408578
  N         4.3397478482        7.8389811462       12.7945159147
  O         3.7221609818        6.0905597228       14.1647152214
  H         5.6859775589        9.5793155043       31.5781825651
  H         5.8850371825        9.5367199741       29.9319825200
  C         4.9033197626        7.7956621356       30.7567207116
  H        -5.6873941733        9.4560589945       25.1083125861
  H        -6.8477151740        8.7106349165       26.1798399795
  C        -7.5591149378       10.5274722432       25.2472405857
  C        -2.8615388130       15.7279955679       35.4273332769
  S         4.9674447037       10.0526787111       11.5256199496
  C         4.2723547749        7.1652875236       11.4806538835
  H         4.0184022251        7.4290972918       31.3008253028
  H         4.8657670072        7.2869343774       29.7956269969
  C         6.0832671089        7.1454332835       31.5431559447
  H        -7.2616089314       10.5824374831       24.1882325593
  H        -7.6084679789       11.4434094255       25.7621291397
  C        -8.9415637223        9.7099721307       25.1336504300
  H        -2.4578446179       16.7453451343       35.4055815554
  C        -3.4185369010       15.3185584479       36.5916442867
  H         5.1120573487        7.5282728274       10.8846733059
  H         4.3890645234        6.1374422915       11.6791880286
  C         2.9918530697        7.4228536880       10.7774232424
  H         6.1739590394        7.6355120998       32.5472070550
  H         7.0360130963        7.1942616631       30.9874347720
  C         5.9559839166        5.6568686755       31.7632336948
  H        -9.6742727491       10.1020060137       24.4397797712
  H        -8.7426008446        8.6709572530       25.0617130488
  C        -9.6160537366        9.6901651913       26.4967118215
  S        -4.0945746753       13.8573913415       36.8538684724
  C        -3.5130907826       16.4687564861       37.6027104555
  H         2.7500386876        8.4437814557       10.8396357348
  H         3.1213808335        7.1687302390        9.7461875075
  H         2.3488270048        6.7602706483       11.3854525184
  H         4.9452748982        5.3730670530       32.0625453552
  H         6.6298428738        5.3942093068       32.5375921171
  H         6.2649069586        5.0270847629       30.9427619563
  H       -10.4815854983        9.0589588913       26.5644635113
  H        -9.7624991389       10.6832592066       26.8451222823
  H        -9.1121587228        9.2159448813       27.3398918925
  C        -4.5396418014       14.6113559915       38.4098091454
  N        -4.2682656004       15.9929976659       38.6035347497
  O        -3.0194578417       17.5366108077       37.5480471053
  S        -5.3647432379       13.7946973538       39.8283345156
  C        -4.5733495081       16.8285003519       39.8168832570
  H        -4.7715212247       17.8763379875       39.5253991251
  H        -5.5157294063       16.4441447031       40.1633563345
  C        -3.5418073920       16.7648506244       40.8909476507
  H        -2.6167913395       16.3482590720       40.5264965762
  H        -3.4017133252       17.7111637217       41.3643414207
  H        -3.9737039979       16.1422988574       41.6319118249
