352
 i =    48700, time =    48700.000, E =        24.9271979595
  H        11.0393031722        7.8133822846       32.4046797781
  C        11.5037208177        6.8424951509       32.3170397358
  H        12.5074497825        7.0473762086       31.8994782983
  C        10.6041186424        6.0449760987       31.3426702541
  C        11.6547151582        6.2202366327       33.7150796643
  C        10.8811958877        6.5582785185       29.9105222864
  H        11.0350102869        5.0212701192       31.2318199590
  H         9.6090316351        6.0187695503       31.7554307176
  H        12.5310410503        6.5868834611       34.2566255338
  H        10.7047786670        6.3709097508       34.2761402318
  H        11.6959433817        5.1690985148       33.4128286893
  C        10.1893670241        5.6434056652       28.8311602277
  H        11.9429908248        6.4911261191       29.6993102427
  H        10.4756630781        7.5727441332       29.8612184396
  C        10.7848816955        6.0037379229       27.4786379135
  H        10.4161364329        4.5567731813       28.8487930086
  H         9.1084135632        5.7840473571       28.8893939323
  C        10.0212321993        5.4239521456       26.2552327912
  H        11.7354678929        5.6352620885       27.4974894189
  H        10.9379849118        6.9909298887       27.3634504552
  C         8.6944228396        6.2058632909       25.9993402531
  H        10.6975751101        5.4573177797       25.4342553846
  H         9.8472894400        4.3788682757       26.4338109161
  C         7.5253567695        5.3610961187       25.4668366272
  H         8.3997672778        6.7393503951       26.9044503679
  H         8.9078374306        6.9645956702       25.3057671679
  C         7.1384614097        4.0599586232       26.1426681630
  C         7.9342585445        4.6731478149       24.2310387743
  C         6.2471994355        6.2094644958       25.4924953895
  C         7.3270422654        2.9552376873       25.3514576695
  C         6.6622881625        3.7254573567       27.4570972373
  C         7.8689280691        3.3259054616       24.1511347374
  C         8.2528199870        5.3515103034       23.0453419031
  H         6.4950865058        7.1744110240       24.9874452582
  H         6.0867428648        6.3343784036       26.5305803908
  C         4.9293666574        5.5334917094       24.9742187455
  S         6.8462549763        1.5299193009       26.1547963938
  C         6.3543169947        2.3930548932       27.5674286631
  H         6.3736294597        4.5385432552       28.1478755033
  C         8.2310477444        2.7806971860       22.9346578466
  H         8.3136517540        6.4247689091       23.0518583753
  C         8.6786975329        4.7390316947       21.8607323222
  H         5.0905668742        5.0677745593       23.9431351859
  H         4.7232273372        4.7676261084       25.5791614443
  C         3.6847235345        6.3935188987       24.7924300537
  C         5.7023765283        1.7078540617       28.7445819447
  C         8.6917957082        3.4338460761       21.7694906133
  H         8.1842173230        1.7341277007       22.9023269043
  C         9.1290726564        5.0726094920       20.6204690143
  H         3.0510848124        5.9780855133       24.0038048713
  H         3.9764865961        7.3734262101       24.3452977013
  C         2.9652568707        6.4877380019       26.0930961514
  C         5.7926011756        0.3561389476       29.0102682353
  C         5.0082259993        2.4072035343       29.8106493295
  C         9.0362058505        2.6370761167       20.6054190945
  C         9.3630280718        3.9577939767       19.8153786084
  S         9.4353824041        6.5134603848       19.8344388590
  H         2.4412610293        7.4189812226       26.1251817137
  H         3.8126719306        6.5288709471       26.8710682134
  C         2.0929051790        5.1647564980       26.3724369100
  N         6.1317640074       -0.6107065135       28.0652575030
  C         5.5922189770       -0.2367951552       30.2526630219
  C         4.7857140278        1.8373103995       31.0436004886
  H         4.6815515715        3.4741570744       29.7293138932
  C         7.8722480892        1.8266033651       20.0181091224
  C        10.2408418396        1.6594080170       20.8469792510
  C         9.7001023257        4.2833959435       18.5301668073
  C         9.8263129194        5.6150876811       18.3429299784
  H         1.5170553968        4.9519952017       25.4749885722
  H         2.6906320748        4.2830937669       26.4336375926
  C         1.1398844898        5.3035426076       27.5092463241
  S         6.2654239311       -2.1192549780       28.7122981597
  N         5.8849821192       -1.6071100672       30.2468183849
  C         5.0971624645        0.4107067353       31.4099600705
  H         4.1443220307        2.4274249167       31.7620669036
  H         7.5881086225        1.0115731714       20.7801887621
  H         8.2562732931        1.2930363414       19.1499776016
  C         6.6694815134        2.7704219625       19.6624423412
  H        10.5101442291        1.0758122553       19.9052024044
  H         9.9171040983        0.8874354101       21.5640210135
  C        11.5396641173        2.2728150556       21.2774129606
  H         9.7256168027        3.4427966506       17.7325028236
  C        10.2166025844        6.3167176490       17.1407722212
  H         0.6161494603        4.3739131972       27.6765233533
  H         0.5064484395        6.1823374440       27.3270687244
  C         1.9606120329        5.5810233091       28.8266168035
  C         5.0403974260       -0.2108257472       32.6738460805
  H         6.9160133894        3.3880725510       18.8243340064
  H         6.4114719188        3.4840383966       20.5515810843
  C         5.4432003130        1.9230286338       19.2094967676
  H        11.3282289891        2.9836907686       22.1126627951
  H        11.9528813693        2.9220525511       20.5251643561
  C        12.6547507515        1.3459532254       21.6098645927
  C        10.2468210079        7.6630739152       16.9828630694
  C        10.3676642957        5.5428343200       15.8563601339
  H         2.7677552570        4.8009941141       28.7176361332
  H         2.4371049242        6.5574513743       28.7570746347
  C         0.9599046592        5.4472905352       30.0081207588
  H         5.0166929805       -1.2789084765       32.6605898493
  C         4.7093140484        0.2520107999       33.9676162563
  H         4.8568500644        1.6324892215       20.0227560106
  H         5.6699562541        0.9919785634       18.7775834113
  C         4.6332041299        2.6255158841       18.0945610289
  H        12.8117070636        1.2421787717       22.6506505383
  H        12.6532932432        0.3262282592       21.2768976686
  C        14.0184843510        2.0021490488       21.1906025811
  N         9.9730907044        8.6368214138       17.9772175293
  C        10.4417713436        8.2841560891       15.7541266411
  C        10.7571843239        6.1876966306       14.6482471919
  H        10.2529817148        4.4924627632       15.7919646433
  H         0.1095688255        4.7368507784       29.7840090901
  H         1.4758445327        5.0643671519       30.8739978900
  H         0.4443371648        6.2851111694       30.3569223239
  S         4.4231315383        1.8926025143       34.4406687146
  C         4.4556059850       -0.7898897629       35.0649846085
  H         4.3649057059        3.6243688273       18.3982420439
  H         5.2187323398        2.6937277880       17.1765290371
  C         3.2560047739        1.9273548285       17.8388462787
  H        14.0425752948        2.5269054214       20.2571955853
  H        14.8214541196        1.3155199269       20.9954529598
  C        14.4754913056        2.8614870879       22.3485224021
  S        10.0304353066       10.1112352142       17.3386380156
  N        10.3795674657        9.6439399749       15.8299465761
  C        10.7598357109        7.6831215793       14.5789003248
  H        10.9142747993        5.5948195991       13.7662119936
  C         4.3078964812        1.2181981150       36.0871541591
  N         4.1036472988       -0.1461130612       36.1591640553
  O         4.5792554538       -1.9917697294       34.9602279994
  H         2.8299147439        2.3937377758       16.9416664753
  H         2.6428237503        2.3659373977       18.6231770118
  C         3.2822857109        0.3294335279       17.7432060161
  H        15.0385525195        3.7089789009       21.9146915828
  H        13.6196971469        3.3399582539       22.7408352727
  C        15.2382912838        2.0509934101       23.4419178100
  C        11.0687585339        8.4013282124       13.3443605170
  S         3.9379670181        2.0694164012       37.5249214633
  C         3.9363917892       -0.9036389400       37.3936495019
  H         4.0419032983        0.0142739450       17.0413449570
  H         3.6900720227       -0.0611903356       18.6940633192
  C         1.9425091897       -0.3026297046       17.4892718474
  H        15.1281856023        0.9815243818       23.3113033325
  H        14.8102350825        2.2772791587       24.4370721037
  C        16.6806658533        2.6440001260       23.3723281309
  H        10.7622568030        9.3897757563       13.3847002144
  C        11.6088820557        8.0230227291       12.1575504819
  H         3.2076879469       -0.4765789892       38.0856271446
  H         3.4551917929       -1.9132117057       37.2089016822
  C         5.2013908458       -0.9212706797       38.1667902522
  H         1.8564015141       -0.7213121903       16.4504364951
  H         1.1106796155        0.3455601339       17.6271057033
  C         1.8458869739       -1.5564053538       18.4266151772
  H        16.6326752090        3.7530261908       23.3895745753
  H        16.9570637069        2.4021051729       24.3740237652
  C        17.6739935860        1.9708803387       22.3602570778
  S        12.1958384403        6.4501214280       11.7597876587
  C        11.6892557653        9.0804368456       11.0711309407
  H         5.6583795937       -1.8617658663       38.2441050979
  H         5.8353550000       -0.1608407094       37.7794412458
  H         5.0167608161       -0.5371351892       39.1795371577
  H         1.9266705870       -1.1072083571       19.4645176252
  H         2.5552647587       -2.3399082172       18.1349913710
  H         0.8929396140       -2.0128765901       18.1180320998
  H        17.6365906039        0.9041884531       22.4199910615
  H        18.7247912034        2.2612828369       22.7289307788
  H        17.6752432494        2.2491445915       21.3162461909
  C        12.5094188627        7.2123703362       10.1698002671
  N        12.3013227217        8.5417063902       10.0191005071
  O        11.2390510518       10.1852939133       11.1679767396
  S        13.0862502620        6.2237896033        8.7460361852
  C        12.3303390902        9.1550797121        8.7370000548
  H        12.5391366742       10.2208018266        8.9039109747
  H        13.0884720768        8.7767314581        8.0688559211
  C        10.9866186601        9.0264993235        8.0558068748
  H        10.5993884939        8.0096304843        8.1044781734
  H        10.2736510256        9.7752391615        8.4605200963
  H        11.2794531091        9.2513766093        7.0282978553
  H        -1.3820994903       13.5346925764       17.1343674503
  C        -2.0493570249       14.2733729865       16.5620990078
  H        -1.2676142194       14.9563683262       16.2651291708
  C        -2.8623082403       15.0508843327       17.6249894516
  C        -2.7537600132       13.7443024140       15.3379990067
  C        -3.1991895556       14.1833423487       18.8214230000
  H        -2.3920571294       16.0382534161       17.8094494554
  H        -3.7450467965       15.3231493358       17.1289497968
  H        -2.0587390828       13.8400379679       14.5402876623
  H        -2.8038871043       12.6653357395       15.5189259647
  H        -3.7313072571       14.1477062713       15.2816594385
  C        -1.9646107663       13.8323491341       19.7310805969
  H        -3.6778753442       13.2617615167       18.4765711991
  H        -3.9105346321       14.7010906988       19.4514736668
  C        -2.3350570389       13.5736257891       21.1719135137
  H        -1.4047420038       13.0439709179       19.2401364264
  H        -1.1337528700       14.5768821866       19.7613314229
  C        -1.2484580860       12.9335841737       21.9858771576
  H        -3.2940688153       13.0071428834       21.1770049053
  H        -2.5768080884       14.5876663144       21.5842375533
  C        -0.0551800583       13.8379561152       22.3065283097
  H        -1.7099189634       12.5502649847       22.8968776946
  H        -0.8437343388       12.1536446399       21.3369768876
  C         1.0531047117       13.1053288497       23.1805361041
  H         0.4253052157       14.2857035553       21.3592783386
  H        -0.4022024086       14.7067743048       22.9117644295
  C         1.4870171276       11.8178442795       22.4863562684
  C         0.6531225282       12.3543981323       24.4751161806
  C         2.2997569771       13.9845745438       23.3833752614
  C         1.2898640096       10.6698270003       23.3031403426
  C         2.1387689535       11.3703223834       21.3057936437
  C         0.7526989867       10.9616731233       24.5563452630
  C         0.1488662193       13.0372210325       25.5941519888
  H         2.5623334159       14.5004037113       22.4466414320
  H         2.0282051170       14.8155048972       24.0416468214
  C         3.5574610639       13.2151669570       23.9625175638
  S         1.6759610104        9.1487413006       22.5440403173
  C         2.1522357882       10.0308309789       21.0841265164
  H         2.3737480479       12.0974970623       20.5926634862
  C         0.2823795309       10.2990856536       25.6470333845
  H         0.0818568367       14.0777604768       25.5739608628
  C        -0.2066685445       12.3546607091       26.7367385818
  H         3.7453920231       12.3652028000       23.3641389477
  H         3.3497653755       12.8586942580       24.9463463245
  C         4.8355904488       14.0356284001       24.0438380269
  C         2.6142695123        9.3899548035       19.8191521622
  C        -0.1455663754       10.9736625159       26.8048429322
  H         0.2787591381        9.2168197009       25.6651586828
  C        -0.6296612586       12.7665655493       27.9852118994
  H         5.5614445430       13.6608339246       24.7693464868
  H         4.5900176112       14.9787901126       24.5486665936
  C         5.5720753679       14.4502391961       22.7461959919
  C         2.5248149246        7.9943681420       19.4725888209
  C         3.2920643981       10.2673704714       18.7969468566
  C        -0.5474650592       10.2783305380       28.0982674004
  C        -0.7615819585       11.6637713279       28.8441780893
  S        -0.9305545636       14.2670633216       28.7906498627
  H         6.2681275320       15.2504661072       22.9038672757
  H         4.9006339014       14.8526449065       21.9740842736
  C         6.3225026402       13.2858368486       22.1724785075
  N         2.0211453612        6.9785639341       20.3041772423
  C         2.9908526234        7.4730336674       18.3117509558
  C         3.4953658336        9.7967342061       17.5144730635
  H         3.3253995926       11.2620397479       19.0417036683
  C         0.5606450798        9.3934250884       28.7309346793
  C        -1.8413708499        9.4763129023       27.9292059982
  C        -1.2005969623       12.0076685084       30.1454851127
  C        -1.3037836630       13.3591042870       30.2310256540
  H         7.1607796289       13.1716439161       22.8225230072
  H         5.7383604379       12.3329396126       22.2148712876
  C         6.6082522458       13.4652751742       20.6761680087
  S         2.3472773267        5.5288597875       19.7489364420
  N         3.0113831947        6.0309813000       18.3435857727
  C         3.3550429880        8.3220175618       17.2291521421
  H         3.7123012051       10.5209507272       16.7802856959
  H         0.9725846381        8.7677072194       27.8780658509
  H         0.0806221987        8.8756703314       29.5429219690
  C         1.7341539064       10.1590704118       29.3031815530
  H        -1.8234876743        8.5343826173       27.5246290498
  H        -2.2860596677        9.2477896413       28.9298999231
  C        -2.9366121031       10.3553846328       27.2399387372
  H        -1.4489610199       11.2752007904       30.9048735132
  C        -1.5391312937       14.1010420764       31.5503418474
  H         7.5919216492       12.9234528722       20.4922379246
  H         6.7237741143       14.4975184014       20.4951215868
  C         5.4687993214       12.9934605546       19.8000410354
  C         3.6077736481        7.6256151830       15.9661975035
  H         2.0969557562       10.8414166363       28.5942978290
  H         1.2913986358       10.7826425752       30.1475363995
  C         2.8272900327        9.2437753756       29.7137136740
  H        -2.6951592439       10.6023656766       26.1977691404
  H        -3.0512016185       11.2134557481       27.9354539203
  C        -4.2413768913        9.6433717226       27.1166877578
  C        -1.6157170391       15.5356280890       31.6930381686
  C        -1.7482503377       13.3744998078       32.8668254422
  H         5.1895312386       11.9014287968       19.9708045085
  H         4.5405104234       13.5910471753       20.0004545625
  C         5.8202399635       13.1780183738       18.3080160499
  H         3.2877677368        6.6175868461       15.9480182340
  C         3.7731845866        7.9950871901       14.6908047679
  H         3.3665671236        8.7555555611       28.8529186946
  H         2.3540248354        8.4160817793       30.2998381651
  C         3.9321491635        9.8270256346       30.5662239244
  H        -4.1618349807        8.7343805712       26.4416465451
  H        -4.5960419914        9.3344569474       28.1261208495
  C        -5.2319583604       10.6355844491       26.4915708081
  N        -1.3302352673       16.5753011390       30.7230798851
  C        -1.9711957657       16.1126129841       32.9188474246
  C        -2.1436239900       13.9402161686       34.0501826278
  H        -1.6224345617       12.3159855968       32.8247476680
  H         5.2621259846       13.9939157874       17.8516712652
  H         6.8487931791       13.1718029087       18.0045425804
  H         5.4118918021       12.2721009219       17.9154385640
  S         4.1475255065        9.5951182859       14.2115925595
  C         3.8956922386        6.9556424380       13.6591093957
  H         4.0429143830       10.8698833601       30.2915014353
  H         3.6768801382        9.7288713191       31.6412902998
  C         5.2536425966        9.0468635639       30.4280326473
  H        -4.7892664529       11.1014044294       25.6420715154
  H        -5.4990236038       11.4844974574       27.1032139287
  C        -6.4651529270        9.9249641625       26.0470019552
  S        -1.5457382271       18.0294691361       31.3957781264
  N        -2.1421598852       17.4889486339       32.8665119510
  C        -2.2775594339       15.4400954015       34.1301175961
  H        -2.3070118075       13.3134110850       34.9617755043
  C         4.2338219737        8.9096670094       12.5709865272
  N         4.1526914020        7.5516633467       12.4697942732
  O         3.8563200505        5.7620214545       13.8861289607
  H         5.9986671714        9.4031243275       31.1045173971
  H         5.7096154544        9.1744305705       29.4607783727
  C         5.0449582432        7.5522470255       30.8141586941
  H        -6.2296046353        9.1315096942       25.3620099929
  H        -7.0453780809        9.5942266891       26.8942862766
  C        -7.2619800941       10.7925164661       25.1329990191
  C        -2.5310908840       16.1888944361       35.3102803524
  S         4.2662723260        9.8738216818       11.1423679193
  C         4.2312279676        6.7036151950       11.2526863374
  H         4.2007391037        7.5580951644       31.4740296856
  H         4.8749674723        6.9744318300       29.8934147547
  C         6.2073205316        6.8230075085       31.5666445782
  H        -6.6934007812       10.8964002254       24.1670773205
  H        -7.5293218982       11.7222216471       25.6702011125
  C        -8.5535144184       10.1323027488       24.6449588424
  H        -2.2592616066       17.1775884874       35.2826539460
  C        -3.1833786570       15.8583858924       36.5034218634
  H         4.8831831002        7.0158357340       10.4753563748
  H         4.6265946312        5.7293788365       11.5655301528
  C         2.8537353663        6.5413403798       10.6486401873
  H         6.6141729681        7.4247807745       32.4402733910
  H         7.0499027477        6.6841844062       30.9183657552
  C         5.8369040274        5.3989337491       32.0406788440
  H        -8.9218019947       10.7385462237       23.8133304423
  H        -8.4133541407        9.1950207661       24.0715105655
  C        -9.4945638196        9.8742631269       25.8533739154
  S        -3.9507822371       14.3846763968       36.9483351376
  C        -3.1332698527       16.8753473039       37.5436496394
  H         2.8078043446        6.8161767438        9.6180131693
  H         2.5179074165        5.4930349442       10.6336978900
  H         2.0984799502        7.1784034029       11.0590812481
  H         4.7392881140        5.1120927091       31.9049433006
  H         6.1705401335        5.4094135562       33.1155576207
  H         6.3223481808        4.5448734030       31.5017038592
  H       -10.5703738045        9.7269410639       25.6177171018
  H        -9.4401941138       10.6268239029       26.6585664863
  H        -9.1278861141        8.9663403439       26.3915863443
  C        -4.1650804370       15.1023049110       38.5395002756
  N        -3.8900140628       16.4331804804       38.5403786956
  O        -2.6697235949       18.0510939280       37.3911389179
  S        -5.1698622064       14.4410124993       39.7878579388
  C        -3.9174592867       17.2122370871       39.7415430902
  H        -3.7314389004       18.2396757871       39.5981865515
  H        -4.7973469716       17.0643434182       40.2309548409
  C        -2.8273866396       16.7662790205       40.8051803574
  H        -2.4561482525       17.6492734440       41.3844595393
  H        -3.1755453358       16.2314057925       41.6114905315
  H        -2.0042041021       16.2174328942       40.2785793778
