352
 i =    68800, time =    68800.000, E =        25.2842306083
  H        11.3062173122        4.5310121850       32.3170217532
  C        10.7071979730        5.4040578269       32.1580360411
  H         9.7887337752        5.0895341763       31.6723387467
  C        11.3232173584        6.4431145569       31.2012675721
  C        10.3691282781        6.2155730915       33.4467240009
  C        12.1401254596        5.8720471355       30.0377116325
  H        10.5380129021        7.2195724430       31.0000769801
  H        12.0353775286        7.0429043362       31.7509383249
  H        10.4427151261        5.5693764016       34.3048531627
  H        10.9010217082        7.1541686519       33.4538259019
  H         9.3550104726        6.5848135050       33.3570442219
  C        11.3011039429        5.0456600521       29.0219810108
  H        12.9290226600        5.2381927684       30.4675405989
  H        12.6461476372        6.6567793253       29.5174901772
  C        10.5865438844        5.8762222174       27.9452170817
  H        12.0966450949        4.6012998947       28.4902217666
  H        10.7870923743        4.1848314376       29.4745968089
  C         9.8339593173        5.0692157572       26.9240984099
  H        11.2362564034        6.4759531356       27.2642999960
  H         9.7955966374        6.4600655293       28.4224863012
  C         8.7738056318        5.7756656230       26.0959293948
  H        10.5865027527        4.3554283134       26.3673249304
  H         9.2723934311        4.3568262690       27.5462627151
  C         7.7242641788        4.8728790872       25.3122646374
  H         8.2022556242        6.3692502455       26.7188839957
  H         9.2453106897        6.4588391446       25.3544628413
  C         7.3283439648        3.5194339534       26.0481496357
  C         8.1856405462        4.1107973571       24.0857205092
  C         6.5471813265        5.7423014623       24.7704530240
  C         7.6758684560        2.4288464750       25.2663210489
  C         6.8266875754        3.1315363290       27.3168138188
  C         8.1755448522        2.7459298965       24.0224692615
  C         8.7319380805        4.7357577274       22.9965073191
  H         6.1663865748        5.2840938826       23.8713338560
  H         6.9774186336        6.6068581688       24.3555128383
  C         5.3804228590        5.9866500874       25.6943973956
  S         7.2135894904        0.9027095246       26.0312769473
  C         6.6026513326        1.7570861055       27.3808886827
  H         6.6511140315        3.8446300078       28.1369795564
  C         8.5098418081        2.1082222151       22.8721549423
  H         8.7985270883        5.8010200920       22.9431200798
  C         9.1123526058        4.0942708337       21.8438537873
  H         5.3134599090        5.1124545570       26.3412432555
  H         5.6838105114        6.7523567012       26.3728058627
  C         4.0430583661        6.1461512305       24.9315505889
  C         6.0810239137        1.1446226766       28.6876630330
  C         8.9433060478        2.7788154809       21.7291208905
  H         8.4052704090        1.0101111295       22.8873843122
  C         9.5352702217        4.4288503308       20.6160575228
  H         3.7656031454        5.2947505090       24.3741133729
  H         4.3015655550        6.8584136829       24.2314055002
  C         3.0209193905        6.4626210316       26.0843523339
  C         6.1061018432       -0.2601781594       28.9568646353
  C         5.7629067074        2.0585250802       29.8091173482
  C         9.3763892658        2.0403118197       20.4939100088
  C         9.5977748777        3.3525196345       19.7475349300
  S         9.7300608777        5.9314777354       19.8823327255
  H         2.2399594175        7.0847353112       25.6855926563
  H         3.5071233866        7.1476720968       26.8367694133
  C         2.4070424999        5.2588675537       26.7870796952
  N         6.4012601705       -1.2681304010       28.0411197398
  C         5.8250819567       -0.7547519684       30.2583575364
  C         5.4652998067        1.4649396071       31.0577961745
  H         5.7004090675        3.1630582206       29.7155865788
  C         8.1306460622        1.2363742603       19.9625422766
  C        10.6293170072        1.2093887008       20.7727794936
  C         9.9678011368        3.7987159226       18.4946616257
  C         9.9811267175        5.1817165342       18.3924403662
  H         1.4149689053        4.8648759204       26.3193057983
  H         3.1330171804        4.4321736301       26.6679577345
  C         2.2248090736        5.4979971914       28.3401816875
  S         6.5802017761       -2.6281152162       28.8822510145
  N         6.0683556525       -2.1314747788       30.3323518566
  C         5.5112054683        0.0315399643       31.3858970685
  H         5.1568742240        2.1570848706       31.8218449389
  H         7.8677595847        0.6073883946       20.7262626598
  H         8.2811729200        0.6821484030       19.0369157514
  C         6.9404001241        2.1996926219       19.6532965519
  H        10.7804538345        0.4380036752       20.0413937832
  H        10.4161994972        0.7587089882       21.7161580844
  C        11.8875077564        2.1345224766       20.9459453888
  H        10.3281078093        3.0467215640       17.7425094419
  C        10.3220776351        5.9355889809       17.2053973727
  H         1.6271052575        4.6019469391       28.5111609882
  H         1.5828750567        6.3776739636       28.4665726003
  C         3.4470719175        5.5335263164       29.2701911670
  C         5.4278871441       -0.5736698628       32.6739552415
  H         7.1467975051        2.8199957001       18.7278257621
  H         6.7617710903        2.9305182549       20.4396292664
  C         5.6057510518        1.6729699056       19.4691313335
  H        11.7301974567        2.7532250107       21.7830148980
  H        12.2736655283        2.7351740923       20.2056114495
  C        13.0356856542        1.1572687045       21.4160550360
  C        10.4664244391        7.3435752997       17.1199967776
  C        10.3211226653        5.2755905897       15.8150771266
  H         4.2748943106        4.8741789062       28.9728199499
  H         3.9481190184        6.4781979198       29.2468815732
  C         3.1696392786        5.3089278155       30.7602568670
  H         5.4402398473       -1.6683938011       32.7503463017
  C         4.9993794373       -0.0355216544       33.8892330172
  H         4.9375824734        2.5062079259       19.6754662028
  H         5.5730248338        0.8644333304       20.1180597791
  C         5.3984496514        1.2076393776       18.0084298462
  H        12.7342363347        0.6428807513       22.3648102288
  H        13.2064685620        0.3787932421       20.6454294734
  C        14.3654658980        1.9236843405       21.6302822928
  N        10.2819117456        8.2139414325       18.2548487371
  C        10.7304644458        8.0822360843       15.9568774104
  C        10.6958699939        5.9517229519       14.6420370348
  H        10.1754885950        4.1647335192       15.6806540084
  H         2.1944134454        5.9074812294       30.9710469941
  H         3.0850730361        4.2741180389       31.0159924265
  H         4.0402764054        5.6684230529       31.2336357508
  S         4.5685113427        1.6394858590       34.2373237848
  C         4.9350197024       -0.9785083278       35.0541595452
  H         5.9536504001        1.9447642151       17.3690377631
  H         6.0360440523        0.3528531960       17.6933141147
  C         3.8753417260        1.0521117216       17.6739824134
  H        14.1207912555        2.9539297631       21.9519745568
  H        14.7419171833        2.0366379785       20.6019736143
  C        15.3535357682        1.3601106006       22.6571356776
  S        10.3908496903        9.7460893585       17.7310603397
  N        10.6480228358        9.4935106903       16.1460433129
  C        10.9622118959        7.4465891453       14.6966072337
  H        10.8133831559        5.3624679193       13.6957258685
  C         4.4085876668        1.1270116313       35.9314919945
  N         4.5215780847       -0.2660391713       36.1394992356
  O         5.2359279976       -2.1949048980       34.9884031354
  H         3.7457941981        0.8075956775       16.6543995146
  H         3.4103809227        2.0684299321       17.8204506486
  C         3.1517273756       -0.0672604284       18.5219446555
  H        14.7642861683        1.0112524284       23.5350535209
  H        15.8864109353        0.5485532568       22.1764857691
  C        16.4257598399        2.3580574016       23.1807651248
  C        11.3596326135        8.2164851231       13.6089202286
  S         3.9430394812        2.1417672511       37.2224660420
  C         4.3507767937       -1.0143434407       37.3913968511
  H         3.2253934267        0.0880361444       19.5720221450
  H         2.1093461262        0.1310765028       18.3547880044
  C         3.5336794930       -1.4930737739       18.0915524517
  H        16.0197281308        2.7167298702       24.1357729197
  H        16.5820698263        3.2363111395       22.5721937881
  C        17.7201937989        1.5862258599       23.4854714399
  H        11.5037566854        9.2327366662       13.9255917857
  C        11.6983212199        7.9142556479       12.3440190923
  H         3.7986126465       -0.4238853073       38.1052703451
  H         3.7343638175       -1.8393974294       37.1167298833
  C         5.6662836053       -1.3749568303       38.0072571724
  H         3.3552158146       -2.2306065401       18.8760259627
  H         4.6491972399       -1.5571193897       17.9200549450
  C         2.7293617796       -2.0358097846       16.8990317321
  H        18.2311398358        2.0085585259       24.3814871904
  H        17.4861089219        0.5224350714       23.6962568055
  C        18.5985540200        1.7456252967       22.2483418004
  S        12.1091110216        6.3853320905       11.7441239314
  C        11.8143195175        9.0274586000       11.4104500675
  H         5.8895749284       -2.3859916606       37.7970804992
  H         6.4878886323       -0.7696824326       37.5398093826
  H         5.5163485840       -1.2357056145       39.0635132759
  H         2.2551546079       -1.2891846664       16.3809888804
  H         1.8828960844       -2.6361204258       17.0420800995
  H         3.3305447032       -2.3585270729       16.0543216516
  H        18.5129339912        2.7614891597       21.9666264866
  H        18.3522009757        1.1105109552       21.4348521857
  H        19.6503629212        1.5875151155       22.5362526688
  C        12.3936399225        7.1796236468       10.1573715745
  N        12.2347608740        8.5397472617       10.2056582558
  O        11.6696485709       10.2397888209       11.7388554929
  S        12.7156408351        6.3704579692        8.6187768950
  C        12.4138857640        9.4315177584        9.0705401580
  H        12.7043177175       10.4197368582        9.5153822132
  H        13.2853894508        9.0505726285        8.5139714150
  C        11.0771893460        9.4640311512        8.2730814631
  H        10.4085618155        8.6196793436        8.4269454830
  H        10.5437903241       10.4427312733        8.5699680447
  H        11.2293646222        9.5112351160        7.2011255254
  H        -3.4067155536       14.0188452493       16.1044876985
  C        -2.7631101532       13.2165729354       16.2842978441
  H        -3.4869204503       12.3432498922       16.3933149035
  C        -1.9274251638       13.4454746747       17.5953154709
  C        -1.9057889611       12.9216911595       15.0217861708
  C        -2.6210298698       13.2996512827       18.9805978274
  H        -1.0756375759       12.7685436192       17.6015513691
  H        -1.4942031811       14.5013888458       17.6032007266
  H        -0.9785108624       13.5923646858       15.1375085846
  H        -1.4866368481       11.9373233256       14.9609968051
  H        -2.4226258468       13.1711937302       14.1083897664
  C        -1.5926982244       13.6836514014       20.0577752165
  H        -2.9399853488       12.2315983638       18.9493020096
  H        -3.5110702491       13.9516648280       18.9805015094
  C        -1.9721203835       12.9958426778       21.3275013972
  H        -0.6317681961       13.3712165940       19.6913836555
  H        -1.5163950617       14.7509401876       19.9462900055
  C        -0.8228529959       12.5118387318       22.0806271494
  H        -2.6847967858       12.2001290631       21.0596025773
  H        -2.5716612931       13.6942262851       21.9756359852
  C         0.1435962295       13.5243375920       22.6892996197
  H        -1.1496634015       12.0164054567       22.9871082758
  H        -0.2155095864       11.8025891327       21.5250395818
  C         1.4496969640       12.9678836407       23.3173024149
  H         0.2434821811       14.3357771112       21.9735197004
  H        -0.3870465750       14.0463403892       23.4871185474
  C         1.7879980686       11.7094938555       22.6047280588
  C         1.0534252294       12.1742066986       24.4620930317
  C         2.6199862734       14.0262874682       23.3272346089
  C         1.5435832538       10.5710604603       23.3429240234
  C         2.5038011745       11.3586549371       21.4204430885
  C         1.1560693880       10.8475150655       24.5912190302
  C         0.4772860900       12.7301904147       25.6007741867
  H         2.8063675571       14.5317461144       22.4039121438
  H         2.3612545769       14.8348811666       24.0285282353
  C         3.8891738952       13.4133514364       23.8198882648
  S         1.9983978721        9.1130661518       22.4590299132
  C         2.5901480910       10.0185560734       21.1422556379
  H         2.7153368964       12.1836314382       20.6878450683
  C         0.7600056491       10.2439270684       25.7226833470
  H         0.5679872322       13.7544307395       25.6329487256
  C         0.1276710051       12.1437867739       26.7580769698
  H         4.2014160468       12.6368765118       23.0887830972
  H         3.7737762700       12.9867370869       24.7893437663
  C         5.0362250925       14.4113724522       24.0738562763
  C         3.0274864926        9.3767280857       19.8581194113
  C         0.2509006458       10.8256630820       26.9061576033
  H         0.8819271469        9.1613877687       25.7441970637
  C        -0.2715577408       12.5351551368       28.0093277024
  H         5.7195656480       14.0620627822       24.8368195576
  H         4.6697274032       15.3621974567       24.4793382448
  C         5.8116379618       14.4873493310       22.7183518288
  C         3.1018285579        7.9966652915       19.6074485422
  C         3.3999541162       10.1711575011       18.6908744689
  C        -0.1901984437       10.1407825007       28.2160582409
  C        -0.4189626950       11.4638800020       28.9038661926
  S        -0.5344597616       14.0044311569       28.8429635679
  H         6.3739912353       15.3997343383       22.6686089836
  H         5.1179130529       14.4423508327       21.9637330542
  C         6.7964236606       13.3005983167       22.6188890512
  N         2.8107984664        7.0634089892       20.5821170357
  C         3.3097895528        7.3915639726       18.3847940763
  C         3.6528669352        9.5750250708       17.4292279367
  H         3.3022551578       11.2100216443       18.7003255413
  C         0.9206974700        9.2711451815       28.8337765028
  C        -1.4455923582        9.3487611942       28.1558425949
  C        -0.6984821336       11.8630408975       30.2299406558
  C        -0.8086992297       13.2196784707       30.3792991768
  H         7.3501888587       12.9903409630       23.4855604686
  H         6.2272285510       12.3827652937       22.3432051813
  C         7.7925884150       13.5837693139       21.5090868820
  S         2.8135683182        5.5449890948       19.9306289360
  N         3.2775833258        5.9617476117       18.4621905544
  C         3.6154053438        8.0783703468       17.1805372990
  H         3.7631925586       10.2528201566       16.6150345986
  H         1.0204339049        8.4044255751       28.1740714936
  H         0.4468424914        8.8637541918       29.7351256660
  C         2.1754258533       10.1033909908       29.0739299363
  H        -1.2039854789        8.4121933638       27.7094927650
  H        -1.7201277574        9.0683461948       29.1586658053
  C        -2.5989377045       10.1705345407       27.5932840264
  H        -0.8854382241       11.0894388519       30.9362237222
  C        -1.1141138565       13.9778558433       31.6501078524
  H         8.5245872852       12.8208076620       21.5313157712
  H         8.2824078749       14.5692651633       21.6418181248
  C         7.0481012919       13.4913782239       20.1329521942
  C         3.8961915956        7.3034868255       16.0313984320
  H         2.4763846477       10.5678141518       28.1503640379
  H         2.0572795043       10.8781303355       29.9018330664
  C         3.3588526364        9.2441957693       29.5218741193
  H        -2.4122374909       10.5140349417       26.6189917233
  H        -2.6185967705       11.0765491033       28.1384210190
  C        -3.8617640124        9.4276312717       27.4448312160
  C        -1.2406769774       15.4204968935       31.7701247069
  C        -1.3286200534       13.2577206581       32.8897171694
  H         6.4364374756       12.6265500256       19.8779464616
  H         6.5147698604       14.3432446700       20.1400208101
  C         8.1167852423       13.5521643383       19.0077708758
  H         3.8164110259        6.2232517685       16.0915171784
  C         4.2200442502        7.7034591986       14.7359365994
  H         3.6532458973        8.6226310456       28.6278403633
  H         2.9826161712        8.5303818541       30.2056820159
  C         4.5589809243       10.1206688136       30.0897230067
  H        -3.7251348009        8.5190222915       26.8619404704
  H        -4.2189727520        8.9967576406       28.4293696849
  C        -4.9844989050       10.2928785068       26.8749568092
  N        -0.9533743149       16.3117785593       30.7759308315
  C        -1.5723993557       16.0612337523       32.9852415565
  C        -1.8270339514       13.8477194810       34.0245733143
  H        -1.1235080196       12.1452652714       32.8710787052
  H         8.4797458205       12.5660148641       18.8100628330
  H         7.6767154861       13.8720144411       18.0806225157
  H         8.9201596407       14.1980232151       19.2610865917
  S         4.2346807783        9.3676500953       14.2174026584
  C         4.3047389281        6.6175184234       13.7208988781
  H         4.6757608523       10.9597855911       29.4355581199
  H         4.2233250802       10.4864697288       31.0320128430
  C         5.8539448077        9.3179284424       30.0203945506
  H        -4.4558054663       11.0280404566       26.3437616516
  H        -5.5143946298       10.7940899492       27.6396056789
  C        -5.9599481778        9.5454737530       25.9751644742
  S        -1.1198208072       17.8432975493       31.4135953663
  N        -1.8152328057       17.4363746889       32.8538668309
  C        -1.9490230029       15.3299115091       34.1230488697
  H        -1.9495666138       13.2344832423       34.9209165933
  C         4.6810995617        8.5847608595       12.6667871286
  N         4.6223747013        7.2429345543       12.6028110198
  O         4.1038558603        5.3686178530       13.9572484892
  H         6.6452069169       10.0191001673       30.0468205356
  H         5.9192871463        8.9505125414       28.9796391160
  C         5.9982081432        8.2764674842       31.1174519371
  H        -5.5318186902        9.3230789035       25.0385895728
  H        -6.3159034930        8.6770214201       26.5429327660
  C        -7.1336272252       10.5107293700       25.6390941873
  C        -2.4072853456       16.0718770325       35.2619569289
  S         5.0853245150        9.4965175535       11.1971975129
  C         4.8604012436        6.4441448204       11.3850569424
  H         6.0820939028        8.6902117256       32.0955904570
  H         5.0400393439        7.7123636901       31.2567807998
  C         7.1419681302        7.2923281964       30.9792245541
  H        -6.7337246720       11.3224406469       24.9395890306
  H        -7.5182954548       10.9876068810       26.5843724748
  C        -8.2141426916        9.6189857862       24.9346994430
  H        -2.1875588168       17.1766206941       35.2312743056
  C        -2.8809611119       15.7015911453       36.4930627748
  H         5.6375563604        6.8726894590       10.7906358560
  H         5.2060885692        5.3860660070       11.6685102542
  C         3.5460581788        6.2815639621       10.6623580977
  H         7.2030446604        6.8004674042       31.9368574363
  H         8.0919748525        7.7624021490       30.9180528793
  C         7.0475804553        6.1925970634       29.9034906221
  H        -8.4721299783       10.0314166061       23.9629721542
  H        -7.8440457474        8.6181396507       24.7278276064
  C        -9.3181838615        9.4002618879       26.0058158718
  S        -3.2348345696       14.0425753366       36.9608675296
  C        -2.9582900026       16.6453890885       37.6268618838
  H         3.7295749515        6.3240007030        9.5866559398
  H         3.0356230125        5.4354658274       10.8717841297
  H         3.0176988851        7.1870440735       10.8673841835
  H         7.9220833465        5.5118591495       30.0465726450
  H         6.9358026425        6.5396265547       28.9072879829
  H         6.1540931537        5.5602704488       30.0883169402
  H        -9.9869491136        8.5695640671       25.8270249856
  H        -9.9317388386       10.2737501772       26.0735313950
  H        -8.9515375294        9.0833902792       27.0223827966
  C        -3.6252025548       14.7431714954       38.5751845579
  N        -3.6061605959       16.0969040079       38.6829532066
  O        -2.7354529013       17.8404420656       37.5621872647
  S        -4.2670340502       13.8392145567       39.8677478275
  C        -3.8346653552       16.8064471703       39.9670954907
  H        -3.9672490158       17.8754998946       39.7931303572
  H        -4.8311018673       16.5721350664       40.4204311570
  C        -2.6562343374       16.8677598640       40.9306331570
  H        -2.3679561141       17.9201508535       41.1370429356
  H        -2.8745313572       16.2661418295       41.8247131558
  H        -1.7679521765       16.3670840890       40.4443963839
