352
 i =    80600, time =    80600.000, E =        25.1300077429
  H        10.7397572862        6.9876663481       31.0177428248
  C        11.6789596732        6.6887494404       31.5006199662
  H        12.3142509069        7.5079480189       31.8475615732
  C        12.5039443499        6.0445716621       30.3643221195
  C        11.4281447723        5.6905638844       32.6975756781
  C        11.6822806322        5.1485616166       29.5400543066
  H        12.9607085498        6.8057079845       29.7442570677
  H        13.2727068643        5.4127790349       30.7860053064
  H        10.4120747493        5.6814542378       33.0212930989
  H        11.5497271026        4.6582637485       32.3579679826
  H        12.1862830723        5.7963587416       33.5091736595
  C        10.5652830327        5.7845726700       28.6094289832
  H        11.3548162093        4.3133677623       30.1829933119
  H        12.4299176370        4.6649882215       28.8477588767
  C        10.8607263810        5.8218681807       27.1025520183
  H         9.5961233908        5.2923158089       28.9301760590
  H        10.4419277850        6.8744023622       28.8616476972
  C         9.8464376757        5.2461436816       26.1382025753
  H        11.8630672690        5.4742402908       26.8973548349
  H        10.9575252564        6.8843635166       26.7341356594
  C         8.5353597951        5.9587679268       26.0476896691
  H        10.2459447299        5.2252967202       25.0988260681
  H         9.6582679511        4.2516075223       26.4858127961
  C         7.3673921907        5.1325822884       25.3144454460
  H         8.1717459117        6.1696407119       26.9791225828
  H         8.7021179748        6.9680888453       25.5852591703
  C         6.9704404936        3.7966291786       25.9494430834
  C         7.9136371556        4.4219609897       24.1317662393
  C         6.1003961763        5.8535317150       24.8995489313
  C         7.3863275424        2.6734444729       25.2305346401
  C         6.5386503120        3.3771124250       27.1955283811
  C         7.8766394829        3.0826973414       24.0155711131
  C         8.4296795506        5.1317766197       23.0807350024
  H         5.5652058196        5.1571486307       24.2305306734
  H         6.2297020935        6.7810346172       24.3053383285
  C         5.1935194670        6.2594401598       26.0128887983
  S         7.1978667958        1.1803440894       26.0933322226
  C         6.5445449528        2.0313327539       27.3729664268
  H         6.2049749628        4.0870312991       27.9429342694
  C         8.1609785344        2.5503840245       22.7815383903
  H         8.5898291392        6.1750213060       23.1599484448
  C         8.7383944990        4.6061631828       21.8317713389
  H         4.9904403892        5.2695664513       26.4767240605
  H         5.8220147347        6.7829130711       26.7064393645
  C         3.8440775648        6.8340191151       25.4576661700
  C         6.2347645931        1.3294312026       28.6799427408
  C         8.5747335092        3.2519443047       21.6496350935
  H         8.0535810414        1.5164751330       22.8258165685
  C         9.1864508724        5.0023171268       20.6381082924
  H         3.4201969620        6.0772067060       24.7206362407
  H         4.0079394009        7.6354376594       24.8958258899
  C         2.6675654187        7.2081138121       26.5365000385
  C         6.2769123921       -0.0657755332       28.9605598511
  C         5.9983474219        2.2062699693       29.8670505343
  C         8.7351980039        2.6134014607       20.3649582785
  C         9.1302989706        3.9246636414       19.7366515498
  S         9.6531574065        6.4389756498       19.8991680766
  H         1.8214447970        7.0911119499       25.8106169964
  H         2.7247090980        8.3402715148       26.6573557738
  C         2.4826632224        6.2434704102       27.7046596101
  N         6.4084124919       -1.1013037478       27.9748985520
  C         5.9662567468       -0.5914148483       30.1878509288
  C         5.6619441038        1.6910672503       31.0839308893
  H         6.0096259423        3.2829879588       29.7399627341
  C         7.4904026793        1.8715088398       19.8627866697
  C         9.9787456308        1.7041750647       20.3178108960
  C         9.4641312160        4.3178222432       18.4224799482
  C         9.8154446040        5.6606451714       18.3444649039
  H         2.6184097553        5.1873416622       27.4396263800
  H         3.3062091193        6.5375070158       28.4032587313
  C         1.1410172913        6.3393916426       28.3911575927
  S         6.3200902813       -2.5516471023       28.8024385418
  N         5.9714123203       -1.9799442594       30.3012131633
  C         5.6367718392        0.1873043340       31.3311188788
  H         5.5325132914        2.4712650733       31.8048257537
  H         7.2593037665        1.1409281239       20.5897519127
  H         7.7307037226        1.2485013721       18.9774792096
  C         6.3110559893        2.8034333018       19.5881403634
  H        10.0799603286        1.1193982807       19.3800810516
  H         9.9684190587        1.0651280463       21.2822525814
  C        11.3028012462        2.4244502250       20.6041303052
  H         9.6542575628        3.5499206213       17.6530788949
  C        10.1932904523        6.3937648260       17.1407352860
  H         0.3090734684        6.3612692165       27.6843088413
  H         1.0531635941        7.2575108108       28.9693096648
  C         0.9785558518        5.1909413217       29.3352029447
  C         5.2747224222       -0.4442560933       32.5105818492
  H         6.5947311643        3.5312911227       18.7647944181
  H         6.1372572242        3.4142771561       20.4449467217
  C         4.9458752152        2.1504558890       19.3460950115
  H        11.2870704513        3.3016389654       21.2781205241
  H        11.7511457505        2.7362073856       19.6616216741
  C        12.4632607421        1.5583276225       21.1732690731
  C        10.2621657748        7.7820259345       17.0220723334
  C        10.4072679173        5.6074396001       15.9071449091
  H        -0.0903800091        4.9926893737       29.4681640040
  H         1.4571455371        4.2652932543       28.9123779234
  C         1.7281599670        5.4766491486       30.6170283244
  H         5.1739478184       -1.4795179109       32.5734200920
  C         4.9573736796        0.0788270584       33.7557030019
  H         4.1276704699        2.9079178068       19.4639106524
  H         4.7503810929        1.4341310287       20.1475202926
  C         4.9648655277        1.3489751377       18.0847104025
  H        12.2339591804        1.0197582551       22.0754484403
  H        12.7320295320        0.8511007000       20.4168401993
  C        13.6685745999        2.4381815000       21.5413906343
  N        10.0422522092        8.6335275810       18.1350206267
  C        10.6390067744        8.4776331471       15.9015712872
  C        10.7339029836        6.3028816948       14.7262286460
  H        10.3987442574        4.5310929261       15.9408504567
  H         1.4444535988        6.4828125952       30.9410446833
  H         1.2888488597        4.8306375195       31.4331786904
  H         2.8326762844        5.2799273608       30.5455284617
  S         4.7156833657        1.7158137741       34.1606082352
  C         4.8727858871       -0.8550316360       34.9113928166
  H         5.5883006848        1.7761624622       17.2905694639
  H         5.4240308333        0.4381354475       18.4826089299
  C         3.6507689874        1.1601610577       17.3786049444
  H        13.3192014757        3.3064209562       22.1377392729
  H        14.1188181499        2.6501472196       20.5479493237
  C        14.7591256251        1.7403738654       22.3422072839
  S        10.2790975511       10.1854909749       17.5959170419
  N        10.6260107386        9.8739377054       16.0573767762
  C        10.8419124540        7.8036333937       14.6771727691
  H        10.9366979404        5.6278755192       13.9111661808
  C         4.1674882670        1.1883796184       35.7657689594
  N         4.3928035166       -0.1719995116       35.9580138272
  O         5.2810080265       -2.0366503696       34.9239385312
  H         3.7528721919        0.6148058083       16.4646251638
  H         3.3203365425        2.1763116262       17.0801515322
  C         2.7114225638        0.4554098509       18.3558299406
  H        14.3357709098        1.2546367558       23.2102560453
  H        15.2189513839        0.8825007473       21.8115686395
  C        15.8202980395        2.6933137125       22.7468344456
  C        11.1651106271        8.5734497821       13.5206088730
  S         3.7784480516        2.1088319887       37.1552807641
  C         4.1851754443       -0.8597344711       37.2411273494
  H         3.1266733551        0.2692896631       19.3671304241
  H         1.8973532530        1.1465827707       18.5732865479
  C         2.1228789732       -0.8703198847       17.7280803643
  H        15.4648974387        3.5685701510       23.2911610276
  H        16.0755576673        3.0984926778       21.7798250327
  C        16.9940036266        2.0596009713       23.4919574084
  H        11.1260610516        9.6549404824       13.7059538863
  C        11.5482109092        8.2226819826       12.1941378245
  H         3.5008378256       -0.3877858608       37.9765669063
  H         3.6008069347       -1.6645372532       37.1071530395
  C         5.4853264199       -1.3742147219       37.8609770056
  H         1.3739541377       -0.5361642932       17.0155090890
  H         1.4586805320       -1.3494728360       18.5210518125
  C         3.0867801783       -2.0146159637       17.3160410702
  H        17.2481698715        2.6284038864       24.3768638324
  H        16.6832546730        1.1263753598       23.9082928730
  C        18.2433409933        1.8071424557       22.5979415659
  S        11.9010471152        6.6222440533       11.6178307613
  C        11.7620953955        9.2736091922       11.1599417961
  H         6.3078001906       -0.8204878540       37.4889932751
  H         5.5303268196       -0.9400785425       38.8893948803
  H         5.6711549931       -2.4473469989       37.8797933045
  H         3.8242964515       -1.5908668666       16.6737167136
  H         2.6048423109       -2.6529643400       16.5805813394
  H         3.6291640427       -2.6036421984       18.0624897763
  H        18.6750832929        2.7260610088       22.2352434761
  H        18.1493237632        1.0350598882       21.7926701919
  H        19.1010053283        1.4851081777       23.3160559755
  C        12.5205843519        7.2996125761       10.1520174274
  N        12.3128502886        8.6561021604       10.1082194710
  O        11.5763448593       10.4315038073       11.3711742456
  S        12.8197107444        6.4445134913        8.6259945687
  C        12.4347441480        9.4118054509        8.8264097467
  H        12.9563036520       10.3526673830        9.0490264571
  H        13.0994682166        9.0696106779        8.0783423749
  C        11.0230633824        9.5585492240        8.0996262179
  H        10.2291178906        9.7142368960        8.8012527799
  H        11.0983241290       10.4248391345        7.4268391983
  H        10.7170999516        8.6812006665        7.5555635399
  H        -1.3293258691       16.1609704935       17.0491778158
  C        -1.8830150153       15.3552486358       16.6173464904
  H        -2.8394101961       15.6723811198       16.4414733775
  C        -1.6738086004       14.2437719447       17.6651285025
  C        -1.2600724214       14.9108506314       15.2621870627
  C        -2.2312564661       14.5701296787       19.1003316260
  H        -2.1969918176       13.3337212903       17.2886108027
  H        -0.6271440813       13.8805655183       17.7351053854
  H        -1.6667378249       13.9591386817       14.9241571566
  H        -1.6212944995       15.6145762750       14.4878458511
  H        -0.1810501913       14.8764986632       15.3422169457
  C        -2.4925207167       13.3076614100       19.9207996594
  H        -3.1295480027       15.1600704070       18.8904286432
  H        -1.6131742447       15.3105472464       19.6225680940
  C        -2.6136079180       13.5311404476       21.4974155677
  H        -3.3704224346       12.8103226290       19.5752208956
  H        -1.6321508940       12.6881615762       19.8008262791
  C        -1.4765385494       12.9773791074       22.3241825932
  H        -3.5172858182       13.0407414698       21.8321928867
  H        -2.8722322784       14.4960028641       21.7604157027
  C        -0.2246280975       13.8725821193       22.4151345428
  H        -1.8955715500       12.5913631592       23.2834765206
  H        -1.2056203721       11.9888849950       21.9138089055
  C         1.0320945620       13.3407317667       23.0518932491
  H        -0.0944730538       14.1724931157       21.3807375601
  H        -0.5774475549       14.7901822168       22.9254186031
  C         1.4599040664       11.9788768244       22.4192065383
  C         0.6953572542       12.6161027599       24.3129639384
  C         2.2055973410       14.3524331773       23.0289216948
  C         1.3107177799       10.8709348227       23.2019849847
  C         1.8155714683       11.5960796865       21.1522119083
  C         0.7973188357       11.2648344333       24.4466623226
  C         0.2392129661       13.3715642452       25.4127394711
  H         2.3830321845       14.8165119637       21.9985262338
  H         1.9516573217       15.1955777645       23.6492048896
  C         3.4777188779       13.7322582919       23.6360036712
  S         1.6623401635        9.3767961749       22.4301391302
  C         2.0769725933       10.2766778628       20.9912405845
  H         1.8923164570       12.3725443858       20.4043016028
  C         0.4714844974       10.6988337823       25.6166395015
  H         0.2057148699       14.4390180084       25.2310504059
  C        -0.0139853769       12.8366224400       26.6637205224
  H         3.8583206961       12.8403317088       23.1598625469
  H         3.3259080778       13.3761899074       24.6814497558
  C         4.6250815456       14.7111803249       23.7276048541
  C         2.6442070420        9.5550439520       19.7952276944
  C         0.0318677368       11.4435623916       26.7419894779
  H         0.5805998631        9.6475339612       25.6337080257
  C        -0.3273878029       13.2308625248       27.9259860668
  H         5.2959256640       14.4136560184       24.5378945108
  H         4.3626890349       15.7545003948       23.9968332213
  C         5.4156286362       14.7244128211       22.3988139061
  C         2.6582195845        8.1459363954       19.5800235743
  C         3.1478584305       10.3805631386       18.7175670210
  C        -0.3000828564       10.7633915535       27.9670045036
  C        -0.5537983711       12.1292508730       28.7236875881
  S        -0.6233976136       14.7591695442       28.7364064859
  H         5.8394109777       15.7438139295       22.3854642797
  H         4.8249012708       14.5961049892       21.4712215848
  C         6.6157627849       13.8815829697       22.3559797503
  N         2.3912558103        7.1761827155       20.5430308397
  C         3.0457768063        7.5481797182       18.4017889785
  C         3.4480124192        9.7806664742       17.4594395558
  H         3.2153792023       11.4700141578       18.8352518623
  C         0.7037760937        9.8100614032       28.5769611638
  C        -1.5285729827        9.9381574120       27.6652608804
  C        -1.0087378420       12.4910646540       29.9440471829
  C        -0.9475885670       13.8575734924       30.1533873432
  H         7.0995208583       13.9504913707       23.3403641622
  H         6.2392571584       12.8642044249       22.3495802426
  C         7.5237916945       14.0570273868       21.1786340025
  S         2.5863179044        5.6616257345       19.9286227131
  N         3.1016010465        6.1408634597       18.4582402388
  C         3.4655794205        8.2788431319       17.2705903668
  H         3.9654772704       10.4617262223       16.7822157086
  H         1.0049985517        9.0911773292       27.8825261025
  H         0.2825712096        9.1949107812       29.3916317492
  C         1.9616931988       10.5941161298       29.0211282811
  H        -1.2271689539        9.0414804858       27.1644536449
  H        -1.8492880702        9.5405353205       28.6264082485
  C        -2.6257353131       10.5994734882       26.8530569514
  H        -1.2468823745       11.6522690481       30.6547022092
  C        -1.2322606518       14.5697803745       31.4820771071
  H         8.3431272092       13.3773380330       21.1480265615
  H         7.8939032500       15.0175242436       21.3400391568
  C         6.7969177213       13.8421410678       19.8835522513
  C         3.8868972945        7.6036243210       16.0686884601
  H         2.3834643388       11.0933042517       28.1680065228
  H         1.6466499206       11.3155743636       29.7905026244
  C         3.0572352525        9.7019335319       29.5170463469
  H        -2.4608280172       10.6882862868       25.7366125591
  H        -2.8269068090       11.6126714244       27.1560401160
  C        -3.9124688075        9.8241738442       26.8283412966
  C        -1.3510823145       15.9801265040       31.7022590773
  C        -1.7215653114       13.7970945268       32.6259658359
  H         6.1002862452       12.9950013058       20.0017418266
  H         6.0733276886       14.5752709681       19.6425825256
  C         7.7800550153       13.7743468772       18.7093005748
  H         3.9814898236        6.5070467477       16.1600871765
  C         4.0610445404        8.0679451730       14.7370373728
  H         3.4836202587        9.0943296947       28.6960703202
  H         2.7767657219        9.1540982264       30.3520874239
  C         4.2506328301       10.5172987168       29.9750214250
  H        -3.7079944831        8.8711922227       26.4029439399
  H        -4.1415556579        9.5914786330       27.9260975108
  C        -5.0540555236       10.5931522367       26.1582754891
  N        -0.9337182089       16.9345236211       30.7716270617
  C        -1.7584675347       16.5517803513       32.9173584867
  C        -2.0695765692       14.3418893708       33.8783914300
  H        -1.6260873483       12.7637691474       32.5324597476
  H         8.8061569971       13.8565742829       19.0699433703
  H         7.7534911288       12.9712524554       17.9621824505
  H         7.6590981483       14.6972846453       18.1860378149
  S         4.1258691804        9.6095118784       14.1884829264
  C         4.2306591265        7.0451757347       13.6817299482
  H         4.6595300168       11.0052908237       29.0857992438
  H         3.8568277063       11.2752984995       30.6594084392
  C         5.3167681616        9.5385672836       30.6819194953
  H        -4.7098618891       10.8732996782       25.1907708037
  H        -5.1166427149       11.5160919931       26.6752919416
  C        -6.4348754086        9.9016654474       26.0669122029
  S        -1.0055550667       18.3617359582       31.4252008182
  N        -1.6694865594       17.9561164180       32.8910575582
  C        -2.1830923288       15.7818999790       34.0522326722
  H        -2.3162441451       13.7084843488       34.7491955971
  C         4.3217287590        8.9405398163       12.5495190333
  N         4.4574092126        7.6030497948       12.4747389244
  O         4.0457485762        5.8245481862       13.8201511709
  H         4.7746448220        8.8098434981       31.3247579701
  H         5.9750929235       10.1381151565       31.3372232329
  C         6.1425989482        8.6601920003       29.7140879634
  H        -6.3330607038        9.0976496308       25.4035818826
  H        -6.9080436420        9.3633048854       26.8216220370
  C        -7.4058874289       10.8972553102       25.3649279424
  C        -2.5758779708       16.4278187811       35.2997469594
  S         4.7963106425        9.8999498497       11.1320198651
  C         4.5306235789        6.7444022674       11.3226352506
  H         5.8580250214        8.7588079358       28.6326479043
  H         7.2430899723        8.8570823221       29.7855224091
  C         5.9767653927        7.1457998691       29.9607285636
  H        -6.7314897017       11.1757932088       24.4912946787
  H        -7.6394625054       11.6527623529       26.0083288685
  C        -8.6961140214       10.2087255197       24.8655448244
  H        -2.2961406475       17.4883948745       35.2161578993
  C        -3.0388092245       15.9684896721       36.5066213041
  H         5.2477188001        7.1477282576       10.6033427547
  H         5.0200366140        5.8410242439       11.6019726730
  C         3.1415201843        6.4883514043       10.7280274759
  H         5.8859819854        6.5850867776       29.0185102840
  H         5.0703457733        6.9528463893       30.4783158382
  C         7.1135225230        6.4310536510       30.6484817718
  H        -9.2241325442       10.9871069220       24.3504506321
  H        -8.3795784150        9.4680530454       24.0944624181
  C        -9.4690387395        9.6240953693       26.0524698782
  S        -3.5653575899       14.3975753137       36.8975925105
  C        -2.9113942147       16.9362808437       37.6024107883
  H         2.2853670711        6.7846806015       11.3464776618
  H         2.9943489087        6.8131885618        9.6881859619
  H         3.0106057902        5.4239260490       10.7648898521
  H         7.6416977596        5.7708325464       29.9380307325
  H         6.5367237398        5.8575084591       31.3320882966
  H         7.8362370100        7.0770811318       31.1320904103
  H        -9.6876279139       10.4133279314       26.8059224222
  H        -8.9202674233        8.8369694560       26.5211529547
  H       -10.4282862326        9.1854104717       25.7646962809
  C        -3.5605726516       14.9529102406       38.6247124195
  N        -3.3683191940       16.3500853752       38.6997964308
  O        -2.7651210343       18.1489331200       37.3996061496
  S        -4.2159091099       14.0495448167       40.0082611203
  C        -3.5461001785       17.1032765542       39.9613388819
  H        -3.8810048274       18.0580337383       39.6152370062
  H        -4.4232193465       16.8253128796       40.6262164677
  C        -2.3019668934       17.2272546999       40.7955889248
  H        -1.3584758295       17.3688801981       40.2191367171
  H        -2.3747124877       18.0505032111       41.4772115977
  H        -2.2816974860       16.2369597826       41.3394331103
