352
 i =    34800, time =    34800.000, E =        24.7979207704
  H        12.0821946809        7.1558362853       32.2778397582
  C        11.5413453343        6.2124236729       32.3837842898
  H        12.1905212310        5.3252230591       32.2011121230
  C        10.4413311293        6.2043860426       31.2873161736
  C        10.8419107459        6.0297344430       33.7746856489
  C        11.1242389399        6.1870964042       29.8994997790
  H         9.8553129295        5.2434996536       31.3408345792
  H         9.8592222772        7.1134655028       31.3423475576
  H        11.0287060252        6.8645664945       34.4748892286
  H         9.7968104777        5.8008696228       33.7358001113
  H        11.2639049508        5.2128283420       34.3390168349
  C        10.0618463947        6.2445881644       28.8089235211
  H        11.7672369933        5.3118966483       29.7972508665
  H        11.6257125207        7.1180813614       29.8988657748
  C        10.6290979403        5.9851056349       27.3645481431
  H         9.2455944409        5.5675694072       29.0495104475
  H         9.6033660912        7.2370385524       28.8337414141
  C         9.6150443040        5.3568276287       26.3637435726
  H        11.5908878235        5.4741235863       27.4402052458
  H        10.9095840482        6.9598613434       27.0150263905
  C         8.4329995164        6.2422310136       25.9617131225
  H        10.1187863942        4.9739072317       25.4813176207
  H         9.2655082864        4.4198618586       26.7796277250
  C         7.3193138399        5.4226938121       25.1890289525
  H         8.0120009965        6.5520018825       26.9166586829
  H         8.7020683672        7.1980170859       25.4116546991
  C         6.9540008848        4.0259792954       25.8584924323
  C         7.7552096372        4.6945045715       23.8743333546
  C         6.1211575184        6.3477540762       25.0379651619
  C         7.1997024332        2.9387930066       25.0290528046
  C         6.4906935663        3.6397999692       27.1512431256
  C         7.6858511656        3.3410633309       23.8161074540
  C         8.2222234562        5.3499280616       22.7194560494
  H         6.4610318292        7.1790162289       24.3501162567
  H         5.9046931299        6.9275695684       25.8882053945
  C         4.9264787113        5.5768385826       24.5136894332
  S         6.7836708703        1.4262001999       25.7361875401
  C         6.4280818475        2.2550110227       27.2187707692
  H         6.3092279345        4.4190317800       27.9096063391
  C         7.9958586802        2.7327079203       22.5899329734
  H         8.2455868958        6.3775441210       22.5919363138
  C         8.6235145791        4.6450893823       21.6149792741
  H         4.9735204319        5.5066440100       23.4211226057
  H         4.7858452620        4.5714539941       24.9214520866
  C         3.6027659741        6.3145607473       24.7379357319
  C         5.9489541753        1.5540147202       28.4353311509
  C         8.5128472746        3.3253604288       21.4583277666
  H         7.9044116587        1.6823524163       22.6118279003
  C         9.2000423202        5.0270913222       20.4053336030
  H         2.8479353015        6.0707590756       24.0041976947
  H         3.7769500576        7.3481867046       24.4775207345
  C         2.8945198259        6.2551837853       26.1387766439
  C         6.0470080512        0.1660178244       28.6710059107
  C         5.4334550986        2.3224572616       29.6132728552
  C         9.0825565124        2.5492060037       20.2579361693
  C         9.3338460324        3.9522875107       19.5487836650
  S         9.5864545786        6.5451909502       19.7171311504
  H         2.0752518265        6.9830776875       26.1554997907
  H         3.5672570894        6.5600298935       26.9813091632
  C         2.2964141008        4.9225012451       26.5124884416
  N         6.5402194609       -0.8246365757       27.7772749504
  C         5.6593688461       -0.4385515318       29.8328130149
  C         5.0638243867        1.7379468606       30.8464840086
  H         5.3115129280        3.3858879931       29.4939352941
  C         8.0964589809        1.6848253850       19.3979834901
  C        10.4016139735        1.7509866991       20.5308086239
  C         9.6566936131        4.3771793797       18.2365783081
  C         9.8300503890        5.7472521579       18.2327596310
  H         1.5788025553        4.5719025850       25.7581842851
  H         3.0929576487        4.2019063581       26.6764509703
  C         1.3030565641        4.9695577749       27.6278048712
  S         6.3821965096       -2.2999542652       28.3968025378
  N         5.7602488692       -1.8285580136       29.8258786154
  C         5.2735493791        0.2902277733       30.9994201605
  H         4.6154744908        2.4243127994       31.5992232995
  H         8.0069406239        0.6934486491       19.8272794218
  H         8.6239721400        1.5731332776       18.4219729839
  C         6.6822955210        2.3016074466       19.1132272836
  H        10.7102911440        1.4103435866       19.5528111999
  H        10.2449376163        0.9102879804       21.2143085064
  C        11.6208153467        2.4618856928       21.0442431169
  H         9.8019538624        3.6499443179       17.4261344670
  C        10.2319769863        6.4840120437       17.0269238038
  H         0.9729732230        4.0008156767       27.9425842076
  H         0.5279468543        5.5046786654       27.2191648230
  C         1.7511237445        5.6602499251       28.8689013403
  C         4.9634561756       -0.4832827036       32.1858932792
  H         6.7948577089        3.2882927117       18.6648897361
  H         6.2537546791        2.5196221386       20.0558438658
  C         5.8281811940        1.3332411306       18.4541468574
  H        11.2901589313        2.7763847959       22.0574444536
  H        11.8112620938        3.2949572828       20.3789367043
  C        12.8624831974        1.5264059843       21.2668530257
  C        10.3914954077        7.8324605517       16.8848630017
  C        10.5148618493        5.6674751098       15.7581581543
  H         1.7468649406        6.7339733044       28.7361940921
  H         1.0327227580        5.4373728143       29.7066444579
  C         3.0684607156        5.1415343594       29.3916808243
  H         4.9093539596       -1.5560839065       32.0140730533
  C         4.7391336335       -0.0820643309       33.4743891820
  H         5.5082936743        0.6507788817       19.2742499219
  H         6.3309418171        0.7441341107       17.6344182149
  C         4.6023361600        2.0648507459       17.8745742161
  H        12.8195799959        1.1221298313       22.2931655471
  H        12.7667382949        0.6201356060       20.6900524294
  C        14.1600284055        2.1739756261       21.0189005595
  N        10.1231773439        8.7455018466       17.9043907291
  C        10.7482209065        8.5053364873       15.7082541119
  C        10.9445397107        6.2811552127       14.5764932965
  H        10.4005933216        4.5850628970       15.7224666751
  H         2.9750987077        5.4265057561       30.4134780199
  H         3.2820570175        4.1223174372       29.2081660094
  H         3.8853484687        5.7209638151       28.9436641204
  S         4.5424497425        1.5530132496       33.9904326176
  C         4.6298972321       -1.0909093780       34.5616507343
  H         4.4245698707        3.0946729464       18.2516658577
  H         4.8199860998        2.1484846593       16.8594884800
  C         3.2262402913        1.3697318878       17.9753256562
  H        13.9672174623        2.7700151620       20.1822832800
  H        14.8510298539        1.4522610163       20.6534865425
  C        14.7916207714        3.0355196668       22.1552198006
  S        10.2932360802       10.2497253102       17.3224379057
  N        10.7304360238        9.8619516032       15.7901291674
  C        11.0403003214        7.7606128027       14.5073557806
  H        11.2615760544        5.6417792222       13.7422836760
  C         4.0923321440        0.8672024143       35.5771707552
  N         4.2684324717       -0.4838201953       35.6808890277
  O         4.8622033158       -2.2937993314       34.5031617997
  H         2.5418093544        1.9572910069       17.3719485901
  H         2.9149917928        1.3872480120       19.0251513920
  C         3.1847010165       -0.1018322060       17.4464232930
  H        15.6366483563        3.6152397914       21.8079249346
  H        14.1141718977        3.7168482351       22.5378450634
  C        15.2190248550        2.2002250187       23.3532421412
  C        11.4430692038        8.4597742253       13.3135616953
  S         3.7256091109        1.7582237290       37.0604808325
  C         4.2541924764       -1.2289582029       36.9625788769
  H         2.8943456617       -0.1243878191       16.4411090082
  H         4.2020068893       -0.5215475328       17.3992348142
  C         2.2249132893       -0.9890496369       18.1182519651
  H        15.0254876854        1.1309545276       23.1283409653
  H        14.5766324606        2.5202728151       24.1155596941
  C        16.6035983576        2.5573685609       23.9677424959
  H        11.1129155480        9.4996304233       13.3569403768
  C        11.9994330348        8.0931286857       12.1585436890
  H         3.5210457208       -0.8324640711       37.6325146552
  H         3.9590512893       -2.2692674214       36.8463087301
  C         5.7010335847       -1.3392520782       37.4959747212
  H         1.2934108841       -0.4350333070       18.1596460509
  H         2.4316608668       -1.1645102243       19.1922793026
  C         1.7134818367       -2.2878488103       17.4603006567
  H        16.4882279092        3.4662289827       24.4547605292
  H        16.8420533683        1.8541468688       24.7450390006
  C        17.7697689401        2.4712770554       23.0063758458
  S        12.5908007292        6.5534306381       11.7269631579
  C        12.1446625137        9.0994163695       11.0708686853
  H         5.7362695630       -1.9019180805       38.4196040812
  H         6.4652082770       -1.6999092164       36.8116772297
  H         6.0350493428       -0.3327491661       37.7359966768
  H         0.8751041751       -2.7534289274       17.9928143159
  H         2.5569014923       -2.9856347503       17.4959660408
  H         1.4148925492       -2.1583076438       16.4303713695
  H        18.6142318675        2.5106594935       23.7133545957
  H        17.8784007431        3.3917917616       22.4461525703
  H        17.8230360767        1.5809661589       22.3508412035
  C        12.9848211731        7.2001430691       10.1418194237
  N        12.8267365234        8.5484976193       10.0300641126
  O        11.7988565200       10.2939654929       11.0915186616
  S        13.7895887506        6.2908133403        8.8166096301
  C        12.9047676267        9.2941063294        8.8063032075
  H        13.1228722792       10.3000314510        9.1283926230
  H        13.7897793933        9.0759367436        8.3180821357
  C        11.6405085389        9.1003097593        8.0813078519
  H        11.3904082108        8.0369985516        7.9885126185
  H        10.7661135718        9.5535071170        8.5752418612
  H        11.6836494242        9.4524982793        7.0546993950
  H        -4.0543459486       13.9033859617       16.3710779764
  C        -3.0051389347       13.4694161813       16.2976980653
  H        -3.1424734741       12.4410492018       16.4400872361
  C        -2.0848320325       13.7541303169       17.4684083085
  C        -2.2664701676       13.7267249210       15.0286481619
  C        -2.7319964782       13.6319661729       18.8106191958
  H        -1.3010252140       13.0474721616       17.3475845284
  H        -1.5907428511       14.7160678514       17.3898223347
  H        -2.8557388825       14.5147398458       14.5535164063
  H        -1.2282709999       14.0124812202       15.0810920002
  H        -2.3748585591       12.8592711629       14.3123222822
  C        -1.9856022080       12.8044582407       19.8493038150
  H        -3.6588854789       13.0237228988       18.7138555910
  H        -3.1382942294       14.5819310853       19.1122336906
  C        -2.4075795088       13.2427761544       21.2419472473
  H        -2.0759620119       11.7673133560       19.6531049894
  H        -0.8878790409       12.8618577948       19.7640433612
  C        -1.5141272161       12.6465735239       22.2595588515
  H        -3.4421177312       12.9844648366       21.3723703952
  H        -2.5296559350       14.3449467253       21.3462584026
  C        -0.3805914375       13.6464803317       22.6425497799
  H        -2.1770297055       12.5592753819       23.1029941002
  H        -1.1247977079       11.7513223389       21.9283998702
  C         0.9094944180       13.0078905819       23.3214274221
  H        -0.0501141550       14.2335283005       21.7929014895
  H        -0.7211090479       14.4904273127       23.2859225523
  C         1.3749272927       11.6831600582       22.6715307792
  C         0.5989848627       12.2527221260       24.5793828215
  C         1.9661484154       14.1173979216       23.4170394530
  C         1.2669743030       10.5645401519       23.4464172237
  C         1.8887349773       11.2601075804       21.4526961848
  C         0.7358664739       10.9214395392       24.6680689412
  C         0.1527035791       12.9098869841       25.7135444691
  H         2.0776174225       14.5622204895       22.3702229088
  H         1.6605957978       14.9704295765       24.0203221262
  C         3.2775919731       13.5992995608       23.9517719635
  S         1.6527166502        9.1233328591       22.7021033269
  C         2.1075321816        9.9654969271       21.2884588228
  H         2.0508119214       12.0286996715       20.6495287166
  C         0.2854163369       10.3512569504       25.8232203303
  H         0.1613489630       13.9516677706       25.7333647658
  C        -0.1787787217       12.2884294042       26.8976830404
  H         3.6793874286       12.9118054720       23.2117015297
  H         3.0558570933       13.0414081861       24.9100924563
  C         4.3333511314       14.7015062121       24.2002798448
  C         2.5396762497        9.3121380870       20.0154882912
  C        -0.2238306273       10.9745804684       26.9428352478
  H         0.2767629036        9.2687621755       25.7644134685
  C        -0.6450183784       12.6391422063       28.1196299629
  H         4.7263476989       14.4410986326       25.2111573921
  H         3.7366945322       15.6140036319       24.3679745473
  C         5.3290724690       14.9536169442       23.0221152451
  C         2.5576090518        7.9608861217       19.7503881301
  C         3.0405377729       10.0625339580       18.8134823244
  C        -0.6239441046       10.1713141569       28.1329591499
  C        -0.9320761464       11.5106208123       28.9144232300
  S        -0.8639954835       14.1421643066       28.8787676446
  H         5.8983153470       15.9525815209       23.0244307585
  H         4.7798687590       15.0062561784       22.0685949211
  C         6.3381395207       13.8881704971       22.7439867268
  N         2.1293677251        7.0222860947       20.6852268320
  C         2.8705081624        7.3830116240       18.5036192916
  C         3.3539053072        9.5507635188       17.5867605229
  H         3.2249562409       11.0816105210       19.0074823485
  C         0.5991821677        9.4161100734       28.8182125302
  C        -1.9065065198        9.2651403728       28.2181870372
  C        -1.4910721364       11.9603126886       30.1231396102
  C        -1.3336993899       13.3192475450       30.3620915001
  H         7.0287186172       13.8908430515       23.5312291885
  H         5.8984095042       12.8770441217       22.7880391813
  C         7.0178208091       14.1239273629       21.3582096434
  S         2.0433142027        5.5799711462       19.9675568778
  N         2.6849514362        5.9705831021       18.5110949181
  C         3.2559700273        8.1144909361       17.3884024256
  H         3.7515389818       10.2366995831       16.8821139420
  H         0.8923902388        8.5997696993       28.1333159699
  H         0.2114315679        8.9051725368       29.7173035785
  C         1.8258938782       10.1431667170       29.2568416241
  H        -1.5802031300        8.3174730762       27.7347794943
  H        -2.2789149938        9.1138301985       29.2376942635
  C        -3.1683688266        9.9518016491       27.5624659575
  H        -1.8024596225       11.3006766542       30.8622642628
  C        -1.6753019316       13.9851648300       31.6050710582
  H         8.0900364319       14.0282209631       21.5683968633
  H         6.7958286550       15.1598708850       21.0114780119
  C         6.5863567242       13.1985980331       20.2127086343
  C         3.5520616208        7.3567407629       16.2049488838
  H         2.4092981267       10.4176404651       28.3796705828
  H         1.6742179504       11.1378010653       29.6351355474
  C         2.6967651523        9.4371367392       30.2333991995
  H        -2.8299823640       10.8145416770       26.9540335627
  H        -3.7512290054       10.3961529645       28.3838722987
  C        -4.0190290428        8.9813393611       26.7325210025
  C        -1.5384263608       15.3942906899       31.8558326834
  C        -1.8990772382       13.1466869503       32.8418540740
  H         7.1162657165       13.2998563073       19.3132553736
  H         6.6944797729       12.1640299672       20.6669655285
  C         5.1349248938       13.1711200255       20.0317970588
  H         3.4108366572        6.3126876414       16.2154206578
  C         3.8284705191        7.8612409528       14.9335791392
  H         3.0175220670        8.4961470023       29.8477225771
  H         2.1396693095        9.1365842901       31.0741441933
  C         3.9233457256       10.1294896671       30.7689918586
  H        -3.5461759691        8.1856260191       26.1807077093
  H        -4.4784255936        8.4116576652       27.4959390955
  C        -4.9972259816        9.7483691231       25.7993497458
  N        -1.4658958763       16.3724959252       30.8707804706
  C        -1.7480558993       15.9534878835       33.0863920247
  C        -2.0173704163       13.6908561292       34.0826968365
  H        -1.7347451721       12.0626199418       32.7577222444
  H         4.9680797862       12.7488351261       19.0255109964
  H         4.5943005132       12.5306601597       20.7392276900
  H         4.6032083848       14.1007805007       20.1197563146
  S         3.9924851228        9.5405586839       14.5046060950
  C         3.7177726351        6.9431920800       13.7502728961
  H         4.1224147884       11.0969692488       30.2507096579
  H         3.7831510269       10.4672052180       31.8623085810
  C         5.1884153186        9.2798640947       30.6021801568
  H        -4.8015815558        9.6153036838       24.7514072713
  H        -5.0768402384       10.8239713753       25.9990780780
  C        -6.5118900520        9.3763772667       26.0916356530
  S        -1.6790414456       17.8502670090       31.5464352486
  N        -1.7156300653       17.3493948272       33.0730864935
  C        -1.9746473475       15.1829734869       34.2600435802
  H        -2.1277265435       13.0152539808       34.8812919641
  C         4.3888079298        8.9138426271       12.9222178087
  N         3.9490331935        7.6139673271       12.6577864540
  O         3.6824463491        5.7251470994       13.8456288164
  H         5.9187317692        9.9519227164       31.0774147001
  H         5.4049759078        9.0968071085       29.5458040362
  C         5.2301793596        8.0096530456       31.3997204923
  H        -6.5389720752        8.2698610517       25.9434177495
  H        -6.8476880179        9.4148015749       27.1353638844
  C        -7.5206853665       10.1875647803       25.1646077230
  C        -2.2840184063       15.8515658806       35.5095297907
  S         4.9003084967        9.8857417170       11.5607279471
  C         4.2052007125        6.9188008739       11.3395541032
  H         5.5651391816        8.2381479093       32.3996603344
  H         4.2255163261        7.6984442822       31.5641827475
  C         6.1697556091        7.0159621113       30.8018941278
  H        -7.3226161921        9.9650520132       24.0894499740
  H        -7.6003031937       11.3070570061       25.3563294049
  C        -9.0312986350        9.7264593824       25.3612153638
  H        -2.0530680937       16.9587396935       35.5171104130
  C        -2.8523896222       15.4233321063       36.7089939578
  H         4.1622298815        7.6358846743       10.4640260416
  H         5.1228426662        6.3131191557       11.2267370269
  C         2.9959175237        5.9900266222       11.0864909798
  H         7.0820548901        7.5491545596       30.7114976665
  H         5.7644975737        6.6442546987       29.8514419584
  C         6.2859249903        5.9296880557       31.8556606804
  H        -9.6708761073       10.3529761755       24.6566644734
  H        -9.2291164428        8.7236099517       25.0719759632
  C        -9.3682674936        9.9805583817       26.8479713221
  S        -3.5930784202       13.9077002086       37.0209744351
  C        -3.0307879803       16.3963106286       37.8103852747
  H         2.7154615769        6.0779286930       10.0114589446
  H         3.1198770216        4.9355174632       11.3546476779
  H         2.0832306007        6.4047122600       11.5364932446
  H         6.7272826818        4.9890476134       31.4907382901
  H         5.3066266163        5.6442773181       32.2171307593
  H         6.7379543685        6.3040486594       32.7215665978
  H        -9.5599084735        9.0297406123       27.3311092938
  H       -10.3061457784       10.5991396495       26.7503568694
  H        -8.6201485210       10.5347260845       27.4066849183
  C        -3.9177674074       14.4785624216       38.6131562174
  N        -3.6850578915       15.8075109612       38.7807942796
  O        -2.7227732036       17.5833031837       37.6997101751
  S        -4.9160658558       13.7386191604       39.8735966603
  C        -3.9131398695       16.5094250995       39.9716601809
  H        -4.0302463975       17.5569542327       39.7471543750
  H        -4.9309696203       16.3294047933       40.4461089193
  C        -2.8110324038       16.5307851853       41.0021020024
  H        -2.6188709438       17.5586720739       41.2987412871
  H        -2.9977575863       15.9654042749       41.9117090281
  H        -1.8885047115       16.1561306887       40.5175064622
