352
 i =    71600, time =    71600.000, E =        24.6696306056
  H        12.5489461291        5.8288817882       31.9569087317
  C        11.4877570245        5.8933207871       32.1964687515
  H        10.9876352265        4.8833391568       32.1977286073
  C        10.8287974877        6.7541744797       31.1360654908
  C        11.0873444090        6.2601630550       33.6368615693
  C        11.3824315859        6.3610982298       29.7512830093
  H         9.7785608187        6.5791461786       31.2055129185
  H        10.9841423791        7.7948802208       31.2701828074
  H        11.6052628647        7.2216578983       33.9780564282
  H        10.0017542847        6.2770381464       33.6416073287
  H        11.3497346240        5.3841343898       34.2993880465
  C        10.2966983971        6.0550145758       28.7374160134
  H        12.0256015417        5.4985690084       29.8163775784
  H        12.0679477387        7.1626285205       29.4961559927
  C        10.9108936738        5.9029539661       27.2458376014
  H         9.6947257218        5.1574548045       29.0958378778
  H         9.4844806892        6.7746176515       28.7519481868
  C         9.9662440931        5.2511128123       26.2592685063
  H        11.8506930422        5.4332547487       27.3307112403
  H        11.1216462123        6.9482103888       26.8784406346
  C         8.7093452151        6.0513053022       26.0029714332
  H        10.3953009109        4.9219296666       25.3409407664
  H         9.6908327170        4.3883343741       26.7875475866
  C         7.6235331773        5.1647597990       25.3193091210
  H         8.4054792443        6.5563288741       26.8847728006
  H         8.9968692338        6.8552137056       25.4085422252
  C         7.2627289755        3.8333747401       26.0076592440
  C         7.9878262469        4.4579943644       24.1423249241
  C         6.4419977080        6.0257968087       24.8961994995
  C         7.5274727318        2.7493776302       25.1612830743
  C         6.9556627130        3.4957493377       27.3486668770
  C         7.9233604491        3.1089668641       23.9241664352
  C         8.4983481496        5.2362359583       23.0589176985
  H         6.2969052209        6.1771114706       23.8555169500
  H         6.6355618519        7.0421980726       25.2205530663
  C         5.0669532686        5.6076388776       25.3520151381
  S         7.0621170993        1.2545739296       25.9228111129
  C         6.7339145666        2.1257235050       27.4376732879
  H         6.6068864282        4.2340488535       28.0518243675
  C         8.3219608278        2.5282594328       22.7315114970
  H         8.4569103519        6.3349728929       23.1483643409
  C         8.7716989040        4.6460793960       21.7980030084
  H         4.8811582818        4.5368152790       25.4170036203
  H         5.0705587420        5.9574459458       26.3775480690
  C         3.8439804349        6.3786580325       24.6836281468
  C         6.3193231780        1.5221080540       28.7749495721
  C         8.7044029498        3.3436850129       21.5973882510
  H         8.4038683400        1.4123659680       22.7312847685
  C         9.0549404390        5.1232161070       20.5571865268
  H         3.5010913457        5.8129259699       23.8164278739
  H         4.1653853787        7.3645858527       24.3572659689
  C         2.7882296675        6.6063403201       25.7390597007
  C         6.0894205233        0.1341138966       28.9587057931
  C         5.9936006466        2.4078386835       29.9333725880
  C         9.0691558878        2.6992278443       20.3395747978
  C         9.2193767513        4.0770979004       19.6968499144
  S         9.3988918020        6.6433127669       19.8852360866
  H         2.1560181873        7.2934936903       25.2405478682
  H         3.1959345278        7.2087792058       26.5500315030
  C         2.1510825310        5.2729812640       26.1871361251
  N         6.5527074685       -0.8297305686       28.0713209618
  C         5.7857512202       -0.3474932421       30.2406342533
  C         5.3647610577        1.9947191550       31.0750218983
  H         6.0350994052        3.4734878521       29.7637381284
  C         7.9174750347        1.8055490206       19.8904896948
  C        10.4390130822        2.0259113457       20.4479902856
  C         9.6011361282        4.5142682015       18.4122647901
  C         9.7491732374        5.8936943332       18.3788903503
  H         1.3826023269        5.0096936884       25.4196111006
  H         2.8168303924        4.4377687682       26.0439167089
  C         1.6830075723        5.1177710957       27.6502751875
  S         6.4888519486       -2.3065936504       28.8735771359
  N         5.9507763443       -1.7808605939       30.3456645314
  C         5.4324097580        0.4772630246       31.3628370623
  H         5.1206198888        2.7049485453       31.8428966087
  H         7.4641238724        1.2280393391       20.6431232440
  H         8.2945906618        1.1699326195       19.0804388247
  C         6.8219819414        2.6600840928       19.0888411197
  H        10.7752823729        1.6647543828       19.4830845526
  H        10.3249859256        1.1811259665       21.0822842407
  C        11.5104960596        2.9849781921       21.0483898594
  H         9.7916098149        3.7670679875       17.6548754832
  C        10.0500614745        6.6435947243       17.1675629108
  H         1.1897418568        4.1207682056       27.8065058748
  H         0.8474612925        5.8438608797       27.8160215047
  C         2.8112878682        5.1816478533       28.7334778570
  C         5.1462403618       -0.1727285145       32.5971245680
  H         7.2072148756        2.9082461717       18.0997164460
  H         6.5667864777        3.5245032325       19.7303316913
  C         5.4192743735        2.1202554600       18.9188200856
  H        11.1980449947        3.3347542881       21.9965750753
  H        11.7017715872        3.8200581129       20.5289778118
  C        12.8304335356        2.1770286489       21.2486457570
  C        10.0844405542        8.0595688305       17.0436684776
  C        10.4261174684        5.8590152365       15.9455768101
  H         3.3061321114        4.2022372576       28.8006427219
  H         3.5516373271        5.9379470240       28.3841143758
  C         2.3322357055        5.6175401626       30.1457108647
  H         5.0152154996       -1.2705236261       32.4979730621
  C         4.7770105720        0.2772690507       33.8461715018
  H         4.6726545496        2.9558718545       18.9456557908
  H         5.2102487884        1.6261544081       19.8208505094
  C         5.1604481557        1.2501346877       17.7615831753
  H        12.4827575899        1.3962040109       21.9493425371
  H        13.2753884780        1.7512984477       20.2914579089
  C        13.8812321157        3.0172465863       21.8601808456
  N         9.8871584471        9.0364863338       18.0607091031
  C        10.4261919735        8.6116135025       15.8265421617
  C        10.8116528131        6.4762980051       14.7824440784
  H        10.5624708634        4.7698735337       15.9937320959
  H         1.5275558227        5.0953237073       30.2698168741
  H         3.0208589738        5.4787918318       31.0555475894
  H         2.0270741856        6.6208840383       29.9393772229
  S         4.4634793298        1.8786505105       34.3280705443
  C         4.5254728305       -0.7735156521       34.8942608643
  H         5.4777703586        1.8008156937       16.9262980404
  H         5.7958372635        0.3987801132       17.8499211718
  C         3.6292398274        0.9422636805       17.4821779553
  H        13.4023846613        3.4297329086       22.7459488468
  H        14.1467619308        3.7697931763       21.1778639716
  C        15.0864001222        2.1867357269       22.1479043084
  S         9.5855938800       10.4623512133       17.3175204886
  N        10.1785716623       10.0358884598       15.8253986516
  C        10.8059692373        7.9215099537       14.6788539459
  H        11.0671616487        5.9322873368       13.9001972773
  C         3.9501843009        1.1171768960       35.9194943150
  N         3.9994988597       -0.2386794932       36.0099202429
  O         4.6370173619       -2.0025246689       34.7256000738
  H         3.5546717501        0.5260992306       16.4802301111
  H         3.0365502284        1.8608014669       17.5203460411
  C         3.0451032090       -0.0051544539       18.5239361004
  H        14.7513862177        1.1902859192       22.4580971736
  H        15.6140843898        1.9987295913       21.2542979291
  C        16.0965920549        2.8791636090       23.0700315129
  C        11.2057980920        8.6589841902       13.5314556381
  S         3.7894897624        2.0644437223       37.3833935904
  C         4.0268642660       -0.9263798035       37.2956041734
  H         3.3466674634        0.1753146956       19.5049678887
  H         1.9800643580        0.2432643754       18.4514170654
  C         3.1664747367       -1.4576983831       18.0627373882
  H        15.7895245130        2.7305598644       24.1191733363
  H        16.1311885846        3.9750033285       22.9295508503
  C        17.4545413216        2.1771386253       22.7959306071
  H        10.9917296397        9.7411625664       13.6719872758
  C        11.7086336323        8.4241755619       12.2246980812
  H         3.3847099103       -0.4984751551       38.0963456584
  H         3.6756220353       -2.0076808462       37.2087583083
  C         5.4353217801       -0.8517167099       37.7608634423
  H         3.2417785774       -2.0978684112       18.9624939096
  H         4.0723496356       -1.5541890541       17.5425249255
  C         2.0544781715       -1.9752321501       17.2535711791
  H        18.2315881138        2.1979087017       23.5847831710
  H        17.2338880210        1.0729536779       22.7985126693
  C        18.1660259729        2.5893256934       21.4983006755
  S        12.0749729227        6.8656553510       11.5744354126
  C        11.7761830487        9.5437479530       11.2434780293
  H         5.5314812064       -1.7467089209       38.4168434818
  H         6.1680453313       -0.9321397135       36.9541098507
  H         5.6545967691        0.1052768502       38.3042697759
  H         1.1375050048       -1.7908263406       17.7797376071
  H         2.1140652569       -2.9924408801       16.9559036490
  H         1.8314071766       -1.4282293061       16.3262359508
  H        17.7956169637        3.3539454579       20.8651725938
  H        18.3948150399        1.6561292245       20.9548316710
  H        19.1232457547        2.9788208451       21.7760972173
  C        12.4862223110        7.6634192397       10.0716764502
  N        12.2129406113        9.0160393689       10.0732480241
  O        11.5479635926       10.6815834962       11.5097303232
  S        13.0515111696        6.7959887468        8.6191655491
  C        12.3317243796        9.9578187105        8.8981340872
  H        12.7356878336       10.9194411077        9.2337641124
  H        13.1164029777        9.6545633213        8.1764853681
  C        10.9156736207       10.0901423232        8.2164287507
  H        10.4632160590       11.0173170581        8.7373754428
  H        10.8785417945       10.3442501082        7.1843986324
  H        10.2556501208        9.1938811522        8.3169016617
  H        -3.2991758984       14.9622824361       16.5103487386
  C        -2.8157921020       13.9615949145       16.4245256642
  H        -3.6394162165       13.1951522371       16.5854671852
  C        -1.7979865363       13.7363065704       17.4993333153
  C        -2.1900455146       13.9636876015       15.0525496190
  C        -2.4788707336       13.8432969317       18.8677390992
  H        -1.2358278078       12.7995349497       17.4981062742
  H        -1.0908678488       14.5338268892       17.3834143351
  H        -1.9925164603       12.9016650315       14.8479461186
  H        -2.7435250915       14.4025568151       14.2736612868
  H        -1.1762010282       14.4064898299       15.2326171029
  C        -1.5795626408       13.3191959659       19.9480953541
  H        -3.2874767325       13.1646733607       18.8004915850
  H        -2.9102504356       14.8047218128       19.0899883821
  C        -2.1256793983       13.5623233129       21.3370528538
  H        -1.4160353538       12.2339202931       19.8130104296
  H        -0.5834651280       13.7311117729       19.8177851949
  C        -1.2610617112       12.9778175639       22.5258707770
  H        -3.1009351691       13.1350348725       21.2923186603
  H        -2.3024028717       14.6298497171       21.6161568633
  C        -0.1051665541       13.9165415141       22.8767653093
  H        -1.8644957921       12.5574736929       23.3148153691
  H        -0.7778373363       12.1278330810       22.0107349410
  C         1.1358034361       13.2326854514       23.4933593640
  H         0.1233417206       14.3462116395       21.8607337900
  H        -0.3703449007       14.7104092434       23.5914891099
  C         1.5842015094       11.9376653947       22.7849865588
  C         0.9145752955       12.4666247534       24.7027563193
  C         2.3368706003       14.1794686130       23.6479893244
  C         1.4897320261       10.8363850106       23.5502982379
  C         2.1539709060       11.6551186012       21.5028743959
  C         1.0522016346       11.1473573165       24.8149332472
  C         0.3353237516       13.0821541311       25.8454343677
  H         2.3682983508       14.7624553758       22.7884845508
  H         2.2420437951       14.9477635645       24.4003750037
  C         3.6642355823       13.5077163879       24.1085246775
  S         2.1901961666        9.3979937495       22.8537632917
  C         2.3483131459       10.2991674466       21.3526653446
  H         2.1731503980       12.4418400645       20.7632766369
  C         0.6001747138       10.4344235749       25.9191671328
  H         0.0621134978       14.1070867556       25.7420325565
  C         0.0319137721       12.3608895640       26.9483776647
  H         3.8088004035       12.6643448730       23.4262974201
  H         3.6926255408       13.0422901670       25.0959387138
  C         4.7798335893       14.6075190025       24.0609140426
  C         2.7818700382        9.6759107303       20.0707428908
  C         0.1247444432       11.0271635155       27.0677145010
  H         0.7229650481        9.3654162828       26.0092120602
  C        -0.4288278321       12.7365292477       28.2430718892
  H         5.5222656117       14.4628072264       24.8136255159
  H         4.4564102495       15.6078807821       24.3151111641
  C         5.2914374380       14.6086978801       22.6539288546
  C         2.9470922886        8.3118274924       19.8876354908
  C         3.0229020888       10.5542478170       18.8579943658
  C        -0.3381096144       10.2996682249       28.2854977989
  C        -0.5872871819       11.6355169349       29.0702470974
  S        -0.8832576126       14.1791260903       29.0504690707
  H         5.6350656305       15.5701518201       22.5742015888
  H         4.4518043042       14.5274522251       21.8712848016
  C         6.4813168270       13.7005707032       22.5368161744
  N         2.8452183859        7.3285974940       20.8980023311
  C         3.1972197451        7.7501047944       18.6306378292
  C         3.2923616968       10.0040594550       17.6341436703
  H         2.8577686694       11.5754400598       18.8672483232
  C         0.7491022970        9.4694520364       28.9946758014
  C        -1.6237281909        9.5411075338       28.0007035671
  C        -0.9855220866       11.9842345319       30.3567277201
  C        -1.2232899933       13.3376234528       30.5204934863
  H         7.0483930133       13.6513297960       23.4748128221
  H         6.0839177122       12.6603429612       22.4505847501
  C         7.3779937702       13.9592844224       21.3513043366
  S         2.9937102423        5.8732141700       20.1886966276
  N         3.1370209957        6.3389449494       18.6656821526
  C         3.3136903941        8.5043073736       17.4366776194
  H         3.3857711027       10.5952733002       16.7375722045
  H         1.1068720122        8.7060410548       28.3557218970
  H         0.3145575689        8.8557262821       29.8080107018
  C         2.0263998763       10.3199652167       29.3880145320
  H        -1.4382136732        8.6546655314       27.3614816008
  H        -1.9279073531        9.1024507983       29.0034860956
  C        -2.8053425848       10.3815508688       27.4313816156
  H        -1.0189432168       11.2134804481       31.0853034017
  C        -1.6778028054       14.1091371785       31.7724958881
  H         8.0223000721       13.0790302159       21.2096073705
  H         8.0846269170       14.7702918161       21.6050653505
  C         6.5718807009       14.1743452132       20.0302984477
  C         3.6610597444        7.7755158446       16.2147984169
  H         2.3709352264       10.8269878552       28.4428773383
  H         1.8854989598       11.0780374997       30.0983190721
  C         3.1381866252        9.4378617036       29.8378123199
  H        -2.4660789779       10.5846296733       26.3785760556
  H        -3.0597742887       11.2712584936       27.9498191836
  C        -4.0239454585        9.5372090008       27.2654510402
  C        -1.6198604788       15.5150745622       32.0010410991
  C        -2.0582163957       13.2973895195       32.9185687303
  H         5.8540844550       13.3243089339       20.0459414478
  H         6.0026606928       15.0967991066       20.0117519061
  C         7.5432087380       14.0768753089       18.7983000186
  H         3.7140862529        6.7022348739       16.2551053920
  C         4.0599051718        8.2302644503       14.9693825369
  H         3.4629194526        8.9095840046       28.9995563580
  H         2.7931617040        8.6528270234       30.5502604526
  C         4.3886880277       10.2063645007       30.3051687291
  H        -3.7584294868        8.7292287899       26.6199429706
  H        -4.2352160960        8.9900981134       28.1246162062
  C        -5.1149407096       10.3876754318       26.7615421385
  N        -1.2653961107       16.4995510568       31.0442416843
  C        -1.9212952381       16.0757805284       33.2060848170
  C        -2.4001258485       13.8481142594       34.1223393016
  H        -2.0255133054       12.2583106382       32.9004688278
  H         7.6989828107       15.0384844130       18.3161722334
  H         8.5798420750       13.8356989106       19.1470823024
  H         7.2417264415       13.3745727080       17.9699680806
  S         4.2413465304        9.8294718496       14.4167767294
  C         4.0981429384        7.2035944624       13.8993155881
  H         4.7738547159       10.8313558697       29.4937589436
  H         4.0786687176       10.8054387641       31.1376690539
  C         5.6662234257        9.3713976154       30.5715955516
  H        -4.7505572583       11.1603315235       26.0112260563
  H        -5.4808323956       10.8902460054       27.5765745307
  C        -6.2254177444        9.6381241903       26.0044928739
  S        -1.4809513801       17.9812625476       31.7208020410
  N        -1.8746315305       17.4911984246       33.2177903486
  C        -2.3141265219       15.3120684803       34.3309331879
  H        -2.7037629270       13.1740559515       34.9199243154
  C         4.2945547308        9.2296197350       12.7833028587
  N         4.3940480719        7.8815271237       12.7141566508
  O         3.9762636454        5.9735318131       14.0973602578
  H         6.1690200915        9.7859392359       31.4111840352
  H         6.3613985917        9.2990507726       29.7208599465
  C         5.2868612981        7.9742973891       31.0046477257
  H        -5.8702377812        9.2052727676       25.1253450690
  H        -6.6242496767        8.8613746391       26.7209854858
  C        -7.2973181452       10.6035483442       25.5075924595
  C        -2.6547731571       16.0277942982       35.5416566193
  S         4.4562596348       10.2522613904       11.3780308276
  C         4.3079654467        7.0135493916       11.4949595779
  H         4.5192764417        8.0741601603       31.7303816208
  H         4.8687931828        7.6012268247       30.0863264877
  C         6.4565598883        7.0495138099       31.4000934322
  H        -6.8361429201       11.3402015047       24.7854273826
  H        -7.6896943841       11.1170508655       26.3761307635
  C        -8.4796218572        9.9394393158       24.9502349726
  H        -2.4224484572       17.0964195015       35.6034474195
  C        -3.3673008741       15.7024031335       36.7075748392
  H         4.9811894326        7.3624945819       10.7244982693
  H         4.7349000285        6.0363994383       11.7732160026
  C         2.8890615525        6.8368526998       11.0770094974
  H         6.4924476391        6.8646945392       32.4269045635
  H         7.4080845158        7.5121522855       31.0818850519
  C         6.2318535021        5.6080448185       30.7860414032
  H        -8.8438438438       10.5915787692       24.1642575297
  H        -8.1247970240        9.0473465335       24.4060271555
  C        -9.5780502367        9.6678046996       25.9159897098
  S        -4.0208177066       14.1033224833       37.1294482377
  C        -3.3392791389       16.6814498529       37.9170158072
  H         2.1412896183        6.5754311502       11.8603077963
  H         2.5553291551        7.7361866404       10.5411984521
  H         2.8405714802        6.0212495766       10.3559535520
  H         7.0392745272        4.8805923359       30.9496722634
  H         6.0042208984        5.8669312971       29.7462574682
  H         5.3579871863        5.2480960668       31.2170136945
  H        -9.2469645468        8.8982390107       26.5573995334
  H       -10.5087173741        9.3668842070       25.4337678496
  H        -9.7739100271       10.4967012280       26.5229075380
  C        -4.2912608316       14.7616583755       38.7912406596
  N        -4.0354265977       16.0870692768       38.8998603477
  O        -3.0254752106       17.9000765366       37.8227056216
  S        -4.9447081049       13.9462698516       40.2725463637
  C        -4.2193491912       16.8823121480       40.0783125692
  H        -4.4429531395       17.8936509348       39.7714036725
  H        -5.0429697970       16.4358928696       40.6803617944
  C        -2.8884307870       16.8760071001       40.8685078089
  H        -2.1605781609       17.6301854901       40.4709343693
  H        -3.1937063628       17.0625823543       41.8823542227
  H        -2.4538353460       15.8439308947       40.8081459171
