352
 i =    40500, time =    40500.000, E =        24.6727753537
  H        12.1723643260        6.7431959858       32.4932463475
  C        11.4967148504        5.9637126689       32.5454213774
  H        12.0969892104        5.1113975889       32.3900364911
  C        10.4191715018        5.9825966752       31.4947329695
  C        10.9999774078        5.6711243194       33.9798104037
  C        10.9211459508        6.2335912788       30.0485252845
  H         9.7070797637        5.1916075982       31.5882305090
  H         9.9193318400        6.8482069160       31.6668501500
  H        10.5682430281        4.6788377022       34.0247587242
  H        11.8664052880        5.6096032010       34.6180467181
  H        10.3755146854        6.4454117099       34.5312036931
  C         9.8255069275        5.8352395925       29.0015414915
  H        11.8439707101        5.5950735668       29.8799620187
  H        11.1242686368        7.3160323297       29.7746280586
  C        10.4687846324        5.9758849743       27.5843495243
  H         9.7707523588        4.7759201942       29.2444950435
  H         8.8747758797        6.3197352273       29.1742311588
  C         9.6201682002        5.2526061156       26.5351242503
  H        11.4827507704        5.4496125858       27.5565321355
  H        10.5497280047        7.0506009252       27.5518267536
  C         8.3957049774        6.1037973508       26.2037536852
  H        10.1424491565        5.0591092684       25.5739648769
  H         9.3981842442        4.2257537187       26.8987946127
  C         7.2517007756        5.3624946089       25.5579089890
  H         7.9214798053        6.6472456529       26.9909995754
  H         8.6962305386        6.9714721265       25.5054069630
  C         6.8487571591        4.0623514681       26.2610239435
  C         7.6387978842        4.6211833259       24.3304743649
  C         6.1022129855        6.3237171952       25.1744606358
  C         7.1296680014        2.9782959348       25.4882765043
  C         6.3373191392        3.7785902887       27.5333925269
  C         7.6073431490        3.3304537280       24.2613333676
  C         8.0349427153        5.3278483297       23.1839014477
  H         6.5896154914        7.0161035840       24.4349281678
  H         5.7591476263        6.9131936799       25.9862113085
  C         4.8432487682        5.5570391055       24.6391977548
  S         6.7790319046        1.4704411719       26.2535861131
  C         6.2611347655        2.4193407319       27.6475602320
  H         5.9966916258        4.5089638733       28.2342410094
  C         8.0911836397        2.6872933276       23.0947687026
  H         8.1160509104        6.3504705227       23.2237018105
  C         8.4200689247        4.6963876880       22.0135736689
  H         4.8563480299        5.3208161396       23.5185383729
  H         4.7007556088        4.5552468509       25.0617197822
  C         3.5260400692        6.2650348720       24.8767115902
  C         5.7564961037        1.7115064551       28.8823946400
  C         8.5085738056        3.3663647169       21.9458089405
  H         8.1637476558        1.6476811667       23.0692219424
  C         8.9679862794        5.1188225807       20.8323015984
  H         2.8151460059        5.6016927594       24.3183818821
  H         3.4036931474        7.2127978952       24.3356278626
  C         2.9799877843        6.3253345712       26.3192889663
  C         5.8240395344        0.2804010331       29.1031599115
  C         5.2094726677        2.5273817196       29.9852133633
  C         9.0254197606        2.6589806062       20.6729603205
  C         9.2538265961        4.0617563926       19.9618889489
  S         9.4060047519        6.6560825136       20.2068986353
  H         2.3194427048        7.1912075579       26.3762400040
  H         3.7699506177        6.4008936257       27.0983001907
  C         2.1164824483        5.1528922652       26.7102046460
  N         6.3816713820       -0.7118810186       28.2287420298
  C         5.5064788931       -0.3250437373       30.3193928475
  C         4.9295672943        1.9238565237       31.2184559491
  H         4.9761417694        3.5951443551       29.9530743106
  C         7.9781221509        1.8105658534       20.0558217256
  C        10.2697154644        1.7568905761       21.0310410109
  C         9.7514292194        4.5401172612       18.7260769220
  C         9.8884106865        5.8850129024       18.7195985093
  H         1.4087907346        4.9544533081       25.8664346119
  H         2.8224723534        4.2718095058       26.8516824695
  C         1.3339798516        5.4659746712       28.0009704980
  S         6.2954969737       -2.2015543545       28.9867836178
  N         5.6808507441       -1.7178599662       30.4130740866
  C         5.0478786726        0.4799799651       31.4352767372
  H         4.4568085671        2.4624594247       32.0153665158
  H         7.5283931030        1.2698903243       20.8224253245
  H         8.3940733202        1.1923522368       19.3184657498
  C         6.8794879471        2.6467410960       19.4255705334
  H        10.6084665522        1.2688852155       20.1118361337
  H         9.8791681840        1.0169329747       21.7345591569
  C        11.4743483597        2.4988220741       21.6350270203
  H         9.9550047198        3.9280656433       17.8288096842
  C        10.1657064989        6.7099467355       17.4693526573
  H         0.7137434566        4.6221883686       28.1980442038
  H         0.7821500109        6.3454864640       27.7611865651
  C         2.2526730367        5.8754787518       29.1667274878
  C         4.6830556373       -0.1605710242       32.6250457274
  H         7.2936407151        3.2238277707       18.6134312440
  H         6.4353355531        3.3644778758       20.1968581981
  C         5.9014940549        1.8323245783       18.6335364175
  H        11.1828298246        2.8422000737       22.6130930870
  H        11.5237861385        3.4326497390       21.1143668052
  C        12.7667398683        1.6295276192       21.4588760572
  C        10.1144898596        8.1063011296       17.3179793507
  C        10.5092845052        5.9616152410       16.2262639161
  H         3.1060883059        5.1927727702       29.1231848049
  H         2.6764309645        6.8750672174       29.0593939378
  C         1.5962837725        5.7496427448       30.5464747473
  H         4.9084303500       -1.1834505265       32.5542418287
  C         4.3917919674        0.3425586726       33.8895168682
  H         5.3129034118        1.3307788972       19.3864015810
  H         6.5907675902        1.2641030605       18.0783748477
  C         5.1135821689        2.7471433374       17.6307009766
  H        12.9738544377        1.1966552326       22.4116414662
  H        12.7514671439        0.9352368490       20.6223417085
  C        14.0024329293        2.4721054180       21.1915266289
  N         9.9046911386        8.9595537728       18.4028009830
  C        10.3416813692        8.7815136265       16.1725525235
  C        10.6768789583        6.6466163562       15.0360215780
  H        10.5446818984        4.8562217246       16.1747267898
  H         0.8706071452        4.9639902489       30.6381883618
  H         2.3560138269        5.3366919991       31.2198977886
  H         1.1567133328        6.6731918076       30.9478827879
  S         4.0588380674        1.9479745707       34.4324342600
  C         4.4383455969       -0.7146026270       34.9178405062
  H         5.4754026699        3.7183105945       17.5384017300
  H         5.4545504652        2.3248025030       16.6413420925
  C         3.5867919984        2.7029239863       17.9460319005
  H        13.7470494631        3.1828815101       20.4973591732
  H        14.6108232377        1.8967094744       20.4795006382
  C        14.8741703947        2.8303001639       22.4208158930
  S        10.0123290517       10.4937629047       17.8836734134
  N        10.4591323204       10.1676709961       16.3565112321
  C        10.6886773145        8.0962379273       14.9172174568
  H        10.7831851926        6.1166085583       14.1551797518
  C         4.0086637732        1.2005800257       36.0512918593
  N         4.1331352766       -0.1562249707       36.1004844374
  O         4.6983091990       -1.8843310882       34.7358152134
  H         3.1679009675        3.6209316805       17.6350578062
  H         3.6327216282        2.9225610448       19.0170526333
  C         2.7653998704        1.4634697450       17.6962454008
  H        15.6459604243        3.4997718058       22.1037785695
  H        14.3733316697        3.3383228988       23.2042707661
  C        15.4984974212        1.6230752059       23.0294809484
  C        10.9553863815        8.8610024047       13.7922556848
  S         3.5272779222        2.0814075383       37.4931929374
  C         4.0125744529       -0.9278512818       37.3844809443
  H         2.4177733878        1.2305085478       18.7251792896
  H         1.8109289549        1.5806819743       17.2804295175
  C         3.4536106280        0.2455610626       16.9514360678
  H        15.6545964891        0.8531208401       22.2577627663
  H        14.8178190435        1.1373416458       23.7180404821
  C        16.7760218173        2.0169588988       23.8162203508
  H        10.5679192273        9.8410165934       13.8443517580
  C        11.5663323751        8.5523355170       12.5952941379
  H         3.2807828959       -0.4460025304       38.1012251895
  H         3.4739204648       -1.8508468668       37.2033551075
  C         5.4062469923       -1.1580579377       37.9913196916
  H         4.1975461652       -0.2682740943       17.5687108127
  H         3.9788368192        0.5202175550       15.9934953270
  C         2.4356025307       -0.8714222057       16.6444236304
  H        16.6764787579        3.1029926095       24.0402893280
  H        16.9656628267        1.4930727171       24.7330929895
  C        17.9586668755        2.0401273110       22.9169463099
  S        12.0049030475        7.0137621024       12.1421574135
  C        11.6207081858        9.5681576697       11.5249827755
  H         5.5250586415       -2.2619501972       38.2079605297
  H         6.2166984449       -1.1359849111       37.2654021478
  H         5.6143724304       -0.4848401923       38.8199660558
  H         2.4201504130       -1.0458756588       15.5631719546
  H         1.4239248432       -0.6061844990       16.9559133918
  H         2.5831343048       -1.7769348523       17.3051350838
  H        18.7167594841        1.4721470753       23.3807798970
  H        18.4846687949        2.9848196963       22.7827302443
  H        17.6877996738        1.5124573559       21.9888696832
  C        12.3082941910        7.6465476531       10.5787862622
  N        12.1048650200        8.9518249165       10.4097657089
  O        11.1792193293       10.7072345120       11.6762042541
  S        13.0613183317        6.8012259282        9.2705219974
  C        12.2724994368        9.7519453751        9.1504183547
  H        12.6638238919       10.7626427534        9.3528817116
  H        13.0692743267        9.4123393247        8.4510357026
  C        10.9987332501        9.9301146783        8.3443073549
  H        11.0084442904       10.9323989219        7.8265281658
  H        10.8482472878        9.3389927584        7.4649081322
  H        10.0729631996        9.8479608951        8.9321489051
  H        -2.1946702894       14.8766866006       16.0361306836
  C        -2.5282225269       13.8903330095       16.2021398583
  H        -3.5858875858       13.9586686039       16.4353467390
  C        -1.8316020948       13.2954883693       17.3533552980
  C        -2.5862532828       12.9900582878       15.0072639069
  C        -2.4165476803       13.8910557563       18.7270371846
  H        -2.0535025892       12.2488666118       17.2907796007
  H        -0.7468486720       13.5336813800       17.1426860915
  H        -2.4208634818       13.4728109718       14.0161990602
  H        -1.7600100098       12.2468978627       15.0120784475
  H        -3.5402968125       12.4270263050       15.0023943755
  C        -1.9672476452       12.9571749354       19.8391025685
  H        -3.5136490285       13.9247971473       18.7448858311
  H        -2.0926097134       14.9088868037       19.0641208582
  C        -2.5238448437       13.1413455262       21.2615493446
  H        -2.2155482631       11.9850937569       19.4752532042
  H        -0.8534477063       13.0507578448       19.8297977413
  C        -1.5589430289       12.8934819439       22.4110714060
  H        -3.2772799297       12.4034776895       21.4051785274
  H        -3.0498801693       14.0421280826       21.4963760954
  C        -0.4140538161       13.8718421941       22.5948633082
  H        -2.1378176866       12.8410773080       23.3075504942
  H        -1.1496247703       11.9582405317       22.2253341989
  C         0.8236461980       13.2611376680       23.3444535845
  H        -0.0281658092       14.2531735925       21.6479888042
  H        -0.6689134021       14.6996701550       23.2040779695
  C         1.3082253955       11.9368697342       22.7403407983
  C         0.4789577157       12.4958232456       24.6210602831
  C         1.9687602417       14.2909169552       23.6792007901
  C         1.2288820593       10.8354093632       23.5761761860
  C         1.8697532391       11.5488813344       21.5252500373
  C         0.7334033570       11.1820463509       24.7854225717
  C        -0.0171679984       13.1352655940       25.7761317650
  H         2.3430038842       14.7494703097       22.7897235448
  H         1.4489924112       14.9907995330       24.2771405978
  C         3.1248366741       13.6387758112       24.4704733796
  S         1.7810682816        9.3241060006       22.8538133418
  C         2.0899958935       10.1886405961       21.3890047708
  H         2.1255331656       12.2246495527       20.7497603893
  C         0.4536784001       10.5827810808       25.9600839076
  H        -0.2358019991       14.1570062897       25.7133898584
  C        -0.3147095831       12.5502673299       26.9610372037
  H         3.3051334563       12.5861646988       24.1689895741
  H         2.6758372178       13.5799087063       25.3863859696
  C         4.4023018689       14.4431023248       24.7418604581
  C         2.6032616187        9.4856163974       20.1200321679
  C        -0.1250919060       11.2173668135       27.0936548018
  H         0.5908638097        9.5418467857       26.1136357304
  C        -0.7406387956       12.9466010484       28.2074882650
  H         4.9994357356       13.7992455572       25.3933323289
  H         4.1848983788       15.3350452463       25.3062530201
  C         5.2838992312       14.6902187643       23.4668186679
  C         2.7250689633        8.1056993677       19.8707538695
  C         3.0029246745       10.3368895653       18.9515921568
  C        -0.5274060684       10.5026651500       28.3548293816
  C        -0.8109177514       11.8558354210       29.0461261006
  S        -1.1374708311       14.4813459809       28.9814723620
  H         6.0691055210       15.2783369606       23.8237131276
  H         4.7064870580       15.2510065021       22.6985052492
  C         5.9588063430       13.5479178863       22.7555765958
  N         2.5342900646        7.0198135540       20.7758649120
  C         3.0151543852        7.5934045188       18.5685861062
  C         3.4627605691        9.8345010137       17.7129712888
  H         3.1150861462       11.4310816968       19.0941233832
  C         0.6119099880        9.7304816943       29.0871182063
  C        -1.9026064153        9.6831159590       28.2576461444
  C        -1.2088408008       12.2614286715       30.3531931134
  C        -1.3490414783       13.6050336170       30.4677358919
  H         6.5555428334       13.0071758720       23.5092474466
  H         5.1379031235       12.8305455215       22.4501141639
  C         6.9556537817       14.1431961714       21.6489657012
  S         2.3453608417        5.6237277981       19.9016842040
  N         2.7869969369        6.2303854339       18.4556405812
  C         3.5025937744        8.3730099916       17.4866272648
  H         3.8754618479       10.4898618991       17.0191473962
  H         0.8069142878        8.9211152078       28.3157005209
  H         0.2638000338        9.2248959371       29.9304347130
  C         1.8904325945       10.6465239759       29.4096506524
  H        -1.6852301161        8.7607432306       27.7302825328
  H        -2.1691481370        9.2405047515       29.2569895504
  C        -2.9596938711       10.4904370145       27.5515328035
  H        -1.1152378377       11.4849161082       31.0732577009
  C        -1.7051050612       14.3019396993       31.7408937344
  H         7.5784506702       13.2871633117       21.4329485741
  H         7.6249499348       14.9516386762       21.9407909962
  C         6.1682820931       14.5665529036       20.4216700223
  C         3.7983836967        7.7346731158       16.2068949080
  H         2.4876011641       10.6947557124       28.4563457543
  H         1.6542177082       11.7248459516       29.7359307567
  C         2.7288514310       10.0564877992       30.5163305050
  H        -2.8000406468       10.6462709104       26.4984472938
  H        -3.0617303263       11.4685012687       28.0211980542
  C        -4.3691584924        9.8273170935       27.5782056277
  C        -1.7707112742       15.7022986444       32.0031794763
  C        -1.8352844453       13.5229087864       32.9344198372
  H         5.6378685747       15.5272033441       20.5857896371
  H         6.9030594082       14.8137078062       19.6693573854
  C         5.3834929679       13.4536800818       19.8154710675
  H         3.6852080326        6.6876584530       16.1633894609
  C         4.0234198432        8.2376495852       14.9344571756
  H         2.4585379803        9.0461763601       30.7058521227
  H         2.4491488532       10.4603049261       31.5143488603
  C         4.1634858853       10.3936696085       30.5703319040
  H        -4.2525826155        8.7966123581       27.2170189198
  H        -4.6861644960        9.7591270933       28.5894880028
  C        -5.3203030030       10.6016700116       26.5940466100
  N        -1.5134735526       16.6653428907       31.0432230697
  C        -2.0651325704       16.2797155673       33.2041440026
  C        -2.1887759816       14.0628501684       34.2245317188
  H        -1.7817391128       12.4538189031       32.8490221117
  H         4.4581082480       13.3179857332       20.3780392242
  H         5.1664402939       13.7290223827       18.8101953016
  H         5.9630103157       12.5698563090       19.6877554519
  S         4.2508540274        9.8617617730       14.5003828993
  C         4.0709702768        7.2586192013       13.7875085400
  H         4.4566422574       11.3056862841       30.1233422466
  H         4.6255760982       10.3624053908       31.4984906003
  C         4.8439484869        9.2011383460       29.9760619260
  H        -4.7601750521       10.7742277816       25.6742385031
  H        -5.5301409725       11.6047628484       27.0424471706
  C        -6.6231357328        9.9202212355       26.3644145461
  S        -1.6033456910       18.1668462617       31.6639654354
  N        -2.1048184124       17.7123938882       33.1194186908
  C        -2.3840505452       15.5668860213       34.3903811837
  H        -2.3129292098       13.3492027056       35.0667471364
  C         4.2981186141        9.3021907028       12.8143795327
  N         4.3231785574        7.9488377656       12.5900144497
  O         4.0274264321        6.0207259079       13.8768003060
  H         5.8012506741        9.4879375771       29.5606651301
  H         4.2656376985        8.8934329567       29.1063301087
  C         4.9798048794        7.9123525222       30.8640709999
  H        -6.5516183046        8.8886322092       26.0870226833
  H        -7.0596862073        9.8790719944       27.3371136924
  C        -7.5590734967       10.7183293843       25.4936236428
  C        -2.7285741072       16.3004983280       35.5390923390
  S         4.5842656909       10.3915645806       11.4146541431
  C         4.4268332626        7.3655176163       11.2492343885
  H         5.0201973658        8.1395191650       31.9622982934
  H         4.1183856820        7.3111987061       30.6292415549
  C         6.2001720103        7.2135774346       30.2482579114
  H        -7.0208648089       10.9426391070       24.5458147165
  H        -7.6753992260       11.6710924639       25.9933571171
  C        -8.7920792101        9.9975768122       24.9701078016
  H        -2.6658226411       17.3420369140       35.5095820278
  C        -3.2886510833       15.8943481897       36.7156275792
  H         5.2610775925        7.7599083380       10.6927233414
  H         4.7860493824        6.3220589230       11.3085231674
  C         3.0648775918        7.3081575973       10.4681821484
  H         7.0927973405        7.7790364187       30.4246087862
  H         6.1190220600        6.9550641891       29.1519068989
  C         6.3617466712        5.8353696862       30.9280283336
  H        -9.3480845695       10.4602577953       24.1907847452
  H        -8.3472836837        9.1049350194       24.5500613036
  C        -9.7319536311        9.6861890248       26.1209160416
  S        -3.9053109213       14.3596338670       37.1264230412
  C        -3.4898122541       16.8793210386       37.7980807117
  H         2.3528990287        7.9313982520       10.9149654877
  H         3.1389823225        7.6245021089        9.4875226969
  H         2.6999279143        6.3149683924       10.4457877354
  H         7.2009184055        5.7434645503       31.6166160501
  H         6.6880866824        5.1768807387       30.1906541988
  H         5.4268364129        5.5120297250       31.2733471723
  H       -10.6849192536        9.3930519751       25.6706186006
  H        -9.8430443670       10.6142376509       26.6657071200
  H        -9.2683168926        8.9669306660       26.7935983077
  C        -4.3818038380       15.0216624900       38.7015241076
  N        -4.0841432748       16.3014990666       38.8858470769
  O        -2.9031543238       17.9647726733       37.7883126175
  S        -4.8114008939       14.0060971326       40.0679815974
  C        -4.0736893906       17.0214487318       40.1287439791
  H        -4.2285422521       18.0986695797       39.9794683223
  H        -4.9839132912       16.7183816982       40.6630390075
  C        -2.8490734347       16.6879510626       40.9675546388
  H        -2.0897421907       16.1485576069       40.4464333215
  H        -2.4455387521       17.5954817028       41.2687622908
  H        -3.0289570727       16.0603178178       41.7918375762
