352
 i =    99300, time =    99300.000, E =        25.2130792571
  H        10.8380890538        4.6799457611       31.1564534294
  C        10.8737295922        5.5404010958       31.8039909377
  H         9.7559393414        5.8449947552       32.0864998536
  C        11.4773455153        6.7050718694       30.9631550854
  C        11.6888421702        5.1982858787       33.1025139407
  C        11.6508064330        6.3043452706       29.5134758133
  H        10.6584252049        7.4646920837       30.9589587757
  H        12.4491683200        7.1393182420       31.3638738899
  H        11.2002521165        4.2657663193       33.5438043950
  H        12.7120272248        5.0275029640       32.9854919901
  H        11.6047937724        6.1200107366       33.6775537357
  C        10.3786613003        6.2720686507       28.6814474923
  H        12.1817786095        5.2992220365       29.4269185865
  H        12.3170464620        7.0115997582       29.0359334998
  C        10.7946892097        5.8270534818       27.3187575166
  H         9.6098897699        5.7110460668       29.2260107602
  H        10.0138372607        7.2782666024       28.7063215597
  C         9.7720106451        5.0518930255       26.5462472530
  H        11.6415191343        5.1642119359       27.3002100424
  H        11.1222603325        6.7632385248       26.8042405043
  C         8.4495201110        5.7526129622       26.3383676058
  H        10.1759134750        4.8054809419       25.5691663600
  H         9.5985775830        4.1397023391       27.1091600301
  C         7.3720318373        4.9518937404       25.5910297681
  H         8.0516561343        6.0949542131       27.3099759353
  H         8.4888997395        6.5902642818       25.6046496537
  C         7.1205671111        3.5873298021       26.2033172284
  C         7.9791271513        4.2629996299       24.3625892091
  C         6.1014293197        5.7359664236       25.1861900128
  C         7.3895726346        2.4634366383       25.4086175283
  C         6.7179309155        3.2075720058       27.4822193035
  C         7.8833833511        2.9374594123       24.1775296627
  C         8.2841715419        5.0035148838       23.2767791033
  H         5.5566413074        4.9760766248       24.6347266181
  H         6.1590128888        6.6264657939       24.4963743405
  C         5.1313072150        6.1638503769       26.2787412210
  S         7.1188951062        0.9405981441       26.2341736501
  C         6.5932436010        1.8521859184       27.6284179082
  H         6.5351725244        3.9956608205       28.2295892742
  C         8.4958186787        2.4280859695       23.1029688946
  H         8.3609061985        6.0687029365       23.4036773725
  C         8.7961229384        4.5226795246       22.1323645500
  H         5.2151558163        5.4243365885       27.0536506457
  H         5.3849684970        7.0985900819       26.7623254505
  C         3.5753144937        6.2230954572       25.7856988410
  C         6.0993685713        1.1577725283       28.8323000702
  C         8.9412819415        3.1798920189       21.9779135610
  H         8.4909967368        1.3500198990       23.1361040015
  C         9.3477689208        5.0211516727       20.9460411662
  H         3.4630069016        5.3549969153       25.1768909608
  H         3.3567101454        7.0576906345       25.1115207431
  C         2.5539874845        6.4311710100       26.8810979619
  C         6.1034706161       -0.2402496786       29.0998714395
  C         5.6835307734        2.0292346070       29.9592016019
  C         9.3399565265        2.5905363953       20.6753076773
  C         9.5222940465        3.9893757479       20.0075336963
  S         9.5258068242        6.5496484628       20.1935915728
  H         1.6678396748        6.9358837898       26.5525046090
  H         2.9540926269        7.0979672178       27.6032810634
  C         2.0828328410        5.0956925954       27.5135675354
  N         6.3388259074       -1.2502147750       28.1714644676
  C         5.9112334451       -0.7458669170       30.3687263783
  C         5.3888290009        1.5280409026       31.2093762113
  H         5.5439796121        3.1112915681       29.8840535747
  C         8.2331418900        1.8171067962       19.9913191736
  C        10.6474513001        1.7670841370       20.8105835555
  C         9.8454772244        4.5100334419       18.7088743221
  C         9.8809773270        5.8394495522       18.6096971971
  H         1.5446331602        4.5988810070       26.6503459367
  H         2.9216708709        4.4048992339       27.7695075607
  C         1.0041470543        5.3150454990       28.5767379538
  S         6.3768928733       -2.6940416562       28.9130287461
  N         6.0775163975       -2.1452818652       30.4028435354
  C         5.5874651007        0.0634434180       31.5267866646
  H         5.0977937095        2.2043077027       31.9920702002
  H         7.9577458794        1.0249540011       20.7414720359
  H         8.7245736312        1.2062517651       19.2496274125
  C         7.0098717414        2.6292177546       19.4620368524
  H        11.0376175262        1.4079144524       19.8541715662
  H        10.3742799544        0.8317102018       21.3341835808
  C        11.7326479428        2.6539380832       21.5129960228
  H        10.2198682701        3.7910339236       18.0070151203
  C        10.1964831996        6.6228637418       17.3568584328
  H         0.3295259655        4.4675694320       28.5390073605
  H         0.3816026743        6.1508265130       28.1937176037
  C         1.4333032021        5.6252832184       29.9891483456
  C         5.3852969761       -0.5777295215       32.8323452877
  H         7.2224556342        3.3568559018       18.6589671016
  H         6.5611118146        3.2144528614       20.2581776476
  C         5.9545144874        1.7154149132       18.8519272282
  H        11.5299268866        3.0908571589       22.4692875595
  H        12.1276899822        3.4048356073       20.8408756676
  C        13.0604147813        1.9708054178       21.7908297106
  C        10.2837814187        7.9929594566       17.2497888627
  C        10.3926761190        5.8709181008       16.0886522947
  H         1.1867967858        6.6710208553       30.0478244161
  H         0.8018460655        5.0100010994       30.6848990458
  C         2.9434169334        5.3018916730       30.2112427630
  H         5.8084035886       -1.5852338059       32.8304147726
  C         5.0394562480       -0.0965113788       34.0723864581
  H         5.7091740294        0.9255897335       19.5629148301
  H         6.4468186032        1.1577304497       17.9761167232
  C         4.7358778466        2.4985440515       18.2886172838
  H        13.0379966488        1.0884085858       22.3688494049
  H        13.4599796571        1.8491443832       20.7853709977
  C        14.1419441823        2.8670686879       22.3690546576
  N         9.9265321850        8.8602873272       18.3210373833
  C        10.7115742600        8.6810076680       16.1346987133
  C        10.9279152614        6.5242952274       14.9968712922
  H        10.2425783733        4.7369761421       16.1045300110
  H         3.1286263975        4.3041899939       29.8322154233
  H         3.5631119544        5.9504551996       29.5703120409
  H         3.2414674521        5.2813631669       31.2432458853
  S         4.6564195441        1.5584860409       34.4885572550
  C         5.0113516244       -1.1096257765       35.1476668294
  H         4.2216970638        2.8920186067       19.2176119764
  H         5.1010225918        3.2517849017       17.6333841285
  C         3.8603047866        1.6569328139       17.3927351670
  H        13.6778034652        3.6531996243       23.0486475454
  H        14.6205659583        3.5059104320       21.6960734212
  C        15.1668536250        1.9779009513       23.1766646581
  S        10.3131707720       10.3943621725       17.9676264052
  N        10.7572500411       10.0903858156       16.4149349878
  C        11.0289900140        8.0366412135       14.9283501532
  H        11.1844754037        5.9270001948       14.1979418636
  C         4.4417421114        0.8993938080       36.0785826455
  N         4.5479052288       -0.4561704012       36.2266157274
  O         5.2955625699       -2.3131544240       34.9499391108
  H         4.4243118967        1.5444083863       16.4605686467
  H         3.0664993904        2.2320151954       16.9772594332
  C         3.5195731175        0.3270852881       18.0310361393
  H        14.5617005184        1.5256392464       23.9191980587
  H        15.5633387243        1.1176053678       22.6678710302
  C        16.2414969652        2.8386683371       23.7948511263
  C        11.3675894541        8.8425027749       13.7776018239
  S         4.2461492853        1.9510722445       37.4788861786
  C         4.5779706159       -1.1725130474       37.4838729714
  H         4.2827894150       -0.4036496772       17.6907012973
  H         3.4135145247        0.3552860322       19.1811907229
  C         2.1644286033       -0.2740147166       17.7449302995
  H        15.8582320121        2.8858383032       24.8386543650
  H        16.3760183847        3.8148141066       23.2711835037
  C        17.5868384227        2.0317373074       23.7917009466
  H        11.3400753036        9.8944479305       14.0485271291
  C        11.9501552950        8.4585189034       12.5542457417
  H         3.8487367097       -0.8568284019       38.0931778418
  H         4.1830276310       -2.1678619482       37.4727067055
  C         6.0126345154       -0.9988123006       38.2172315824
  H         1.3073663826        0.1802935187       18.3643806018
  H         2.2276583398       -1.3320833845       17.9500125036
  C         1.7310634563       -0.1765814666       16.2543180899
  H        18.2087337579        2.2994446046       24.5879056683
  H        17.2705230545        0.9887196644       23.9418649928
  C        18.2819976172        2.1043590099       22.4517135469
  S        12.2932381575        6.9290413880       11.9830274139
  C        11.8068300499        9.5060038215       11.5182259658
  H         6.9042703052       -1.1638254626       37.6351605509
  H         6.0501258804       -0.0379410485       38.7392173496
  H         6.0500431751       -1.7590547893       39.0084017029
  H         1.1565541262        0.7113488039       16.0572925065
  H         1.1794960259       -1.0305659630       16.0077867308
  H         2.5461426164       -0.0840065535       15.5375984563
  H        19.3586524360        1.9748569872       22.5495860520
  H        18.0627642629        3.0929515791       22.0647746962
  H        17.9382870987        1.3497977818       21.7286172508
  C        12.4082637685        7.6801966858       10.4223288396
  N        12.1950684784        8.9922809902       10.3368145631
  O        11.4380572038       10.6759002075       11.7665674117
  S        12.5692445588        6.6997765644        8.9983290101
  C        12.3266338991        9.8685240093        9.2168324688
  H        12.8581810376       10.8633483905        9.2997112154
  H        12.9327454587        9.4194992547        8.3684513423
  C        10.8872387546       10.0140356496        8.5946670719
  H        10.0147387286        9.8467965004        9.2835498227
  H        10.6657630552       10.9530446773        8.1726851846
  H        10.8544598264        9.2593430482        7.8370656225
  H        -3.7237962254       13.8814634383       16.2765669719
  C        -2.6498886436       13.5731567533       16.2246960970
  H        -2.6718132762       12.4863517417       16.2357040605
  C        -1.8682975348       14.2002096616       17.3729783950
  C        -2.0611752302       14.0964461137       14.9536844636
  C        -2.4468477102       13.8907844379       18.7380994217
  H        -0.9181930476       13.7830286989       17.2482317059
  H        -1.7915106569       15.3155430781       17.2309172950
  H        -2.7358233680       14.7320621083       14.3443370196
  H        -1.0722052789       14.6242256354       15.0788730380
  H        -1.9929879324       13.3398196062       14.1217206028
  C        -1.3276682207       14.0799957569       19.8536155258
  H        -2.8073007202       12.8118745766       18.8015854356
  H        -3.3404595181       14.4644535118       18.8816104452
  C        -1.8354807272       13.7520631167       21.2480107905
  H        -0.4997015725       13.4072791312       19.6750915332
  H        -0.9415949695       15.0723751457       19.8579675266
  C        -0.7346843852       13.1384530639       22.1544787346
  H        -2.6959660477       12.9381949466       21.1831725277
  H        -2.3407804148       14.5542016090       21.7483904808
  C         0.4382004313       14.0514775019       22.6622607191
  H        -1.1344952141       12.5766559267       22.9990803153
  H        -0.1694283150       12.3726636032       21.6679836478
  C         1.6187815339       13.3493452298       23.4672367994
  H         0.8670999642       14.6960725677       21.8898513439
  H         0.0999442605       14.9415643913       23.2801057898
  C         1.9248582640       11.9802743892       22.7354201809
  C         1.0616555249       12.5863284478       24.6028938237
  C         2.8608108334       14.1683081249       23.7074298183
  C         1.4305674748       10.8746899170       23.3886917493
  C         2.5480462383       11.6681982635       21.5282548241
  C         0.9204875509       11.2214517987       24.6347716855
  C         0.5569117394       13.1273680055       25.7663194786
  H         3.0616213064       15.0070182839       23.0114675401
  H         2.6418206298       14.8155832690       24.5626456500
  C         4.1388803326       13.3590804896       23.9602112555
  S         1.8203722542        9.3931907670       22.6043666078
  C         2.5240643263       10.3129307900       21.2816477568
  H         2.7906894429       12.4866331730       20.8940869088
  C         0.5775989447       10.5846743406       25.7641006761
  H         0.5623769280       14.2330225288       25.7118480288
  C         0.2065913006       12.4929281328       26.9362617494
  H         4.4026951808       12.5678581452       23.2248819119
  H         3.9635424093       12.8270163694       24.8677904753
  C         5.3223112294       14.3060525398       24.1594504159
  C         2.8592098635        9.6530956677       19.9859774743
  C         0.1671455709       11.1580747707       26.9636771284
  H         0.5113411169        9.4616501743       25.7708266983
  C        -0.2980636223       12.9099489371       28.1478364006
  H         6.0492347722       13.7265152157       24.8217745536
  H         5.0373506878       15.1960836622       24.6563500808
  C         6.1304672547       14.6416124358       22.9401755709
  C         2.7762452850        8.2767081039       19.7225334222
  C         3.2922393023       10.4631347442       18.8175222178
  C        -0.3025499314       10.4482501587       28.2166720911
  C        -0.5634201212       11.8019503149       28.9516023586
  S        -0.6714709362       14.3861156088       28.9316662967
  H         6.9498625314       15.3133212708       23.1508737022
  H         5.4756079717       15.0649809244       22.1556993672
  C         6.7815919663       13.3690838163       22.3801375602
  N         2.5039418170        7.2341520158       20.6308057773
  C         3.0280423621        7.7175071565       18.4506455281
  C         3.4756541176        9.9061029138       17.5604324728
  H         3.3942619991       11.4956115362       18.8906122042
  C         0.7724317359        9.5439704125       29.0054162062
  C        -1.5490846894        9.6699862749       28.0014547010
  C        -0.9570265420       12.1855539679       30.2420373152
  C        -0.9673763880       13.5715199324       30.4343504551
  H         7.8788681647       13.5393271634       22.2182516615
  H         6.6838268897       12.5381321518       23.0713356239
  C         6.1492673837       13.0970261390       20.9452929321
  S         2.5071896526        5.7976699766       19.8516035189
  N         2.8121457290        6.3080037539       18.3904905431
  C         3.3360887109        8.4805828968       17.3112629548
  H         3.6726849964       10.5703247229       16.7112304023
  H         1.0273063326        8.6898790776       28.3418713553
  H         0.3127759930        9.0945692057       29.7945537521
  C         2.0664169183       10.2393227872       29.4482700810
  H        -1.3365910705        8.9396915254       27.3178728141
  H        -1.8299449123        9.0663146966       28.8865420360
  C        -2.7334538909       10.5440824319       27.5373035058
  H        -1.2413463368       11.4534315006       30.9491458205
  C        -1.2544538616       14.3280848460       31.7057604694
  H         5.1447487465       13.5095702714       20.8832723013
  H         6.1831133573       12.0557610284       20.8388773861
  C         7.1253145402       13.6559629076       19.8872702836
  C         3.5608916317        7.8290888322       16.1090438178
  H         2.5084508653       10.6677193534       28.5732876276
  H         1.9829609336       11.0391703387       30.2207804557
  C         2.9630699448        9.1821567544       29.9256060278
  H        -2.4654466652       10.9927753383       26.5577112854
  H        -3.0327328066       11.3317595589       28.3339331960
  C        -4.0196188651        9.8291394187       27.3382315260
  C        -1.3593744396       15.6946681555       31.7936906637
  C        -1.2548394564       13.5647459286       32.9983172859
  H         7.1598088562       14.7456351732       20.0281557811
  H         8.1283498593       13.3326327884       20.1249700654
  C         6.9346044601       13.2923034018       18.4122669211
  H         3.5579762466        6.7566486943       16.1537191448
  C         3.9743321857        8.2103913208       14.8279988359
  H         3.2720601940        8.5249977893       29.0970563271
  H         2.3556237964        8.6048095324       30.6592317081
  C         4.0650296385        9.9358860087       30.6245113538
  H        -3.9387755726        8.9266839002       26.6881067263
  H        -4.5135112989        9.6027642974       28.3110051206
  C        -5.0941991745       10.7173664541       26.7129737032
  N        -1.2875918005       16.6087959545       30.7004264909
  C        -1.6623463564       16.3529859720       32.9297409686
  C        -1.5471682751       14.2553277702       34.2075752145
  H        -1.0958984294       12.4921312453       32.9873692311
  H         7.1077854604       12.2505286939       18.1425391174
  H         5.9073744299       13.4343624208       18.1056224175
  H         7.5564545659       13.8519174340       17.7363740502
  S         4.4503259727        9.7593237620       14.3590386024
  C         4.1790106672        7.1172567941       13.8255721497
  H         4.4577546686       10.5372044741       29.8016395774
  H         3.7103774966       10.5129294452       31.5508394972
  C         5.2473769868        9.0990197140       31.1882042801
  H        -4.7043731896       11.3214299606       25.8010057513
  H        -5.3691717255       11.4864849686       27.4167748957
  C        -6.4163868801        9.9793351678       26.3301960028
  S        -1.4268379086       18.1102583932       31.3297852453
  N        -1.8537562273       17.7086793560       32.8251000159
  C        -1.8899437018       15.6719315346       34.1472809604
  H        -1.6951826922       13.7230948808       35.0819508101
  C         4.6808479388        9.0415584946       12.7840523225
  N         4.5800858520        7.6785151262       12.6800522634
  O         4.1276433479        5.9158635408       14.1079924371
  H         4.8528559197        8.6441538897       32.0726222468
  H         6.0304127650        9.8267457903       31.4223316452
  C         5.8880118624        8.1809408876       30.2012890197
  H        -6.4126734583        9.7840434800       25.2278626906
  H        -6.3529270003        9.0007068555       26.7843411554
  C        -7.6155708317       10.8007528910       26.8040541121
  C        -2.3191115109       16.3742240856       35.3302709696
  S         4.9667884811        9.9849226517       11.3271617247
  C         4.6911175512        6.9267763797       11.4727500599
  H         5.1419213787        7.5462626635       29.6954113986
  H         6.3916869508        8.7818441362       29.3909542119
  C         6.9094455764        7.2685500210       30.8792763970
  H        -7.4845116855       11.7566022837       26.3120374750
  H        -7.5797050465       10.9330904250       27.9066886442
  C        -9.0568108258       10.1797131107       26.4125935444
  H        -2.2111088504       17.4355259882       35.2461314632
  C        -2.9302888070       15.9799842070       36.5143202973
  H         5.4857709255        7.3675453388       10.9163723888
  H         5.0834875467        5.9378707859       11.7839715577
  C         3.3745796005        6.7751113433       10.6494405337
  H         7.8852080222        7.7727752736       31.0345590813
  H         7.2377883657        6.5374918614       30.2290320897
  C         6.5010347716        6.5333336424       32.2083798253
  H        -9.2894074673        9.3367155998       27.1407425406
  H        -9.7798540073       10.8486320519       26.6692677955
  C        -9.0311260300        9.5753285873       25.0343385027
  S        -3.3458976572       14.3650044259       37.0165215122
  C        -2.9711316700       17.0207181836       37.5598037266
  H         3.6652288916        7.0061188417        9.5984957304
  H         2.9772818570        5.7918169527       10.8207559967
  H         2.6806192116        7.6123274649       10.8877395636
  H         6.5216004988        7.1991501205       33.0908303031
  H         7.1943312973        5.8004334632       32.5379604550
  H         5.4785873939        6.0825541439       32.1426726479
  H        -8.4605873517        8.6312922416       24.9686483028
  H        -8.7881594593       10.2888606334       24.2673665747
  H       -10.0158110172        9.1416289925       24.7248573441
  C        -3.7682114661       15.1343050014       38.5428081075
  N        -3.5262940120       16.4592836982       38.6296965827
  O        -2.6034117196       18.1606917215       37.3452572142
  S        -4.2760563872       14.2316210421       39.9577460989
  C        -3.5403160871       17.2289665928       39.8568828380
  H        -3.6597774077       18.2230540787       39.4470515085
  H        -4.5411064631       16.9864319436       40.3593702307
  C        -2.2248382889       17.1153178675       40.6377219391
  H        -1.4022835357       16.7191942160       40.0108265873
  H        -2.0216993049       18.1258066610       41.0276952054
  H        -2.3616068147       16.5115887829       41.5468344032
