352
 i =    93100, time =    93100.000, E =        25.1591533561
  H        10.5204109473        7.0794377608       31.5751244298
  C        11.4561940596        6.4843772170       31.6230119198
  H        12.2692153449        7.1751360045       31.6890798385
  C        11.8059054743        5.6579048536       30.4180917017
  C        11.2247797110        5.6558068803       32.9538159200
  C        10.6242022634        4.8875478949       29.8907519091
  H        12.2920083696        6.3090120034       29.6730204049
  H        12.6137539266        4.9727991118       30.7730521414
  H        12.0824670001        4.9967721512       33.2343311451
  H        11.1230807119        6.2788306293       33.9104128138
  H        10.3171786942        5.0457727769       32.9420601033
  C         9.8063198488        5.6483494281       28.8450485064
  H         9.9746751123        4.9045026572       30.7691807884
  H        10.7949936896        3.8810362540       29.6104639502
  C        10.4057160515        5.7990729890       27.4391567147
  H         8.7727120347        5.1759733020       28.8460761574
  H         9.7165322011        6.6463712936       29.2066629302
  C         9.6188146185        5.1293658819       26.2807110391
  H        11.3678360166        5.4140376995       27.5442900491
  H        10.6431405725        6.8540498948       27.2823891524
  C         8.2260519618        5.8196563790       26.0469855088
  H        10.2124226551        5.1352765219       25.4073036417
  H         9.4057517304        4.1264550849       26.4870018209
  C         7.2818559269        4.9017388752       25.2814350221
  H         7.8882719722        6.0883802926       27.0410976057
  H         8.3767510302        6.8077044395       25.5637709020
  C         7.0690007771        3.5807706048       25.9476772774
  C         7.8809640965        4.2376712534       24.0940821398
  C         5.9953629940        5.7007621236       24.8009747641
  C         7.4315479489        2.4816346881       25.1906362112
  C         6.5264527825        3.2019694313       27.2008451835
  C         7.9445573876        2.8888036380       23.9701118853
  C         8.4362073137        4.9449979996       23.1288836126
  H         5.4819397698        5.0668523177       24.1729220522
  H         6.2434756146        6.6510091780       24.2850509298
  C         4.9667258036        6.0096582709       25.9035603349
  S         6.9756505333        0.9997748170       26.0036379207
  C         6.3408937396        1.8552220192       27.3530764860
  H         6.2321673291        4.0051681798       27.8484957919
  C         8.4367062737        2.2904166921       22.8588932591
  H         8.3690495295        6.0453291754       23.3033930469
  C         8.8829525428        4.3704071099       21.9425250400
  H         4.8421188793        5.1443548700       26.5893510048
  H         5.3598243403        6.8141581649       26.5318061181
  C         3.6040994803        6.3886541642       25.3490454726
  C         5.8033722373        1.1799456104       28.5228931216
  C         8.8089135637        3.0679047769       21.7633305360
  H         8.3466472437        1.2286974287       22.7965672893
  C         9.2701573387        4.8988802689       20.6897095879
  H         3.3805004539        5.9022604709       24.4406458717
  H         3.6630056419        7.4328268635       25.0403634664
  C         2.5794504153        6.3432109647       26.4857621198
  C         6.0101197679       -0.1668353915       28.9437780143
  C         5.3555368267        2.0693137933       29.6288385983
  C         9.2038944331        2.4746795807       20.4290959014
  C         9.4912169114        3.8719685274       19.7826232096
  S         9.5902601658        6.4130535358       20.0189205382
  H         1.6426546230        6.6573230079       26.0971012962
  H         2.9347202530        7.0465427065       27.2532713966
  C         2.4450859154        5.0363164536       27.2450396816
  N         6.1827262303       -1.2203123304       28.0378536553
  C         5.7480108910       -0.6334529283       30.2484818307
  C         5.1928053314        1.5915317708       30.8872852088
  H         5.2851926210        3.2102529224       29.5097570382
  C         8.1787463732        1.5803457075       19.7411635332
  C        10.4872754600        1.6178259703       20.5043268949
  C         9.8827556802        4.2902957695       18.5411781415
  C         9.9510669944        5.6397348353       18.5153028097
  H         2.4360691509        4.2472021907       26.5342869480
  H         3.2261371264        4.8590310937       27.9615360897
  C         1.1249258958        4.9134174941       28.0072490350
  S         6.1482861028       -2.5936986484       28.8874963003
  N         5.8265823799       -2.0315434302       30.3439365088
  C         5.4547396792        0.2038179639       31.3252354173
  H         4.7855546492        2.2235448594       31.6860634130
  H         8.1222487192        0.6234109405       20.1856800340
  H         8.5148925399        1.4252466933       18.7694129152
  C         6.8102567655        2.2321355048       19.7410022377
  H        10.7133423247        1.2202302010       19.5083687129
  H        10.2281954289        0.7226021391       21.0454886694
  C        11.6974942278        2.2839875974       21.0994502502
  H        10.0461571772        3.5216490238       17.8509906058
  C        10.3305820608        6.3284871268       17.2471647903
  H         0.8727651273        3.9031883599       28.3157234264
  H         0.3309048131        5.1011364827       27.2534054419
  C         1.1631872931        5.9434914960       29.2382988658
  C         5.1554533746       -0.3387331723       32.5919734016
  H         6.9049848272        3.3139932682       19.5185710722
  H         6.4370330449        2.0270982284       20.6643649501
  C         6.0812355458        1.6193653212       18.5293740295
  H        11.5100453246        2.7056252802       22.0611204732
  H        11.9702672446        3.0790291597       20.4430544346
  C        12.9685382369        1.4054125956       21.1033564645
  C        10.3979228745        7.7581447701       17.1383446754
  C        10.4138508502        5.6296077563       15.9743953750
  H         2.0282524451        6.5718807530       29.2762837221
  H         0.2717112990        6.5515409201       29.1376128055
  C         1.1590449405        5.2748890494       30.5697216505
  H         5.0270546634       -1.3867128526       32.6645055586
  C         4.8408934937        0.1713847631       33.8546704266
  H         6.4068281136        0.5709231333       18.4853903967
  H         6.5513433479        2.0176406460       17.6284616443
  C         4.5750366110        1.8949166990       18.5410326619
  H        12.8587138289        0.4683458337       21.5204394209
  H        13.4538709650        1.3640368324       20.0725801860
  C        14.0718210753        2.2172750185       21.8477610401
  N        10.0252285577        8.6338845907       18.1600619781
  C        10.6725217466        8.3569160598       15.9683430975
  C        10.7318018929        6.2590244202       14.7796279532
  H        10.2833323501        4.5808052806       15.9146980884
  H         1.2151332795        6.0968764194       31.2256018290
  H         0.2607647829        4.8005868040       30.8613137591
  H         1.9804877322        4.5994220048       30.7088735375
  S         4.5623508535        1.7694121736       34.3085260186
  C         4.5585836863       -0.8048865753       35.0109997664
  H         4.3588211346        2.7315277398       19.2171002203
  H         4.3507395256        2.0370163034       17.4663945563
  C         3.9192025336        0.6614307281       19.2349842244
  H        13.6072887382        2.7249931952       22.6795802375
  H        14.4479196266        3.0021494746       21.2175451965
  C        15.2713944556        1.4725129817       22.3127036618
  S        10.2293127787       10.1043387925       17.6276117480
  N        10.7735164911        9.8012287608       16.1216928905
  C        10.9121549701        7.7159234823       14.7266720052
  H        10.7716504721        5.6650393903       13.9392013206
  C         4.2784752029        1.2246355649       35.9529047428
  N         4.3960904189       -0.1596141792       36.1439040442
  O         4.7106872881       -2.0061848237       34.8648223144
  H         2.8245339412        0.8295844050       19.3341008142
  H         4.3520467356        0.4081336747       20.1960328971
  C         4.0488968964       -0.5373982933       18.2868594595
  H        15.0800994899        0.4803803718       22.7159519703
  H        15.9450293981        1.3300230244       21.4398752995
  C        16.0429421727        2.1963301260       23.4196886320
  C        11.2699484581        8.5231810107       13.6129516004
  S         3.9854553011        2.2592052327       37.3806905919
  C         4.4463546962       -0.8008846642       37.4652924783
  H         4.3895085924       -0.2055188746       17.3144147600
  H         4.8338531955       -1.2624392964       18.5710992792
  C         2.6577956759       -1.2317843202       17.9872015589
  H        15.3084456470        2.5867611864       24.0742184929
  H        16.3669999228        3.1468267159       22.9567534533
  C        17.2026975062        1.4562292032       23.9364974121
  H        10.9975316224        9.5309379176       13.5919804984
  C        11.7909888665        8.2537219176       12.3714856218
  H         3.6894345024       -0.3245342602       38.0920755047
  H         3.9727179720       -1.8189775131       37.4460285227
  C         5.8440919563       -0.9956907202       37.9658961288
  H         2.0077638896       -0.4010631284       17.9287121556
  H         2.3632116583       -1.8326849100       18.9095706575
  C         2.6268493395       -2.2149383493       16.8325429767
  H        17.6017187810        1.9257322380       24.8575793857
  H        16.8689918586        0.5324491923       24.1861545809
  C        18.3449924134        1.3260534249       22.8490489375
  S        12.3333973955        6.6916554885       11.7356732209
  C        11.8975526230        9.3900804002       11.3784977483
  H         6.6483526881       -0.4980916046       37.4327042854
  H         5.8182970701       -0.6203047030       38.9292058535
  H         6.1177121196       -2.0820357716       38.0151003049
  H         3.0555266086       -3.2206616764       17.0710634449
  H         3.1432212692       -1.9126342643       15.9525286275
  H         1.6153220966       -2.4850202180       16.5772118348
  H        19.3658484621        1.2196241725       23.2110920233
  H        18.3946251583        2.2163367134       22.2639809301
  H        18.0847263591        0.5422895602       22.1628590646
  C        12.5566578929        7.5389863130       10.2314585151
  N        12.4349828927        8.8674543796       10.2349055446
  O        11.7878122558       10.5535857646       11.6815185424
  S        13.2233810343        6.7759493353        8.7559387196
  C        12.6082285119        9.6800885419        9.0263435066
  H        12.9029257824       10.6457780304        9.2979221022
  H        13.4846940240        9.2608439116        8.4342225277
  C        11.2280971063        9.7884784146        8.2869044956
  H        11.3859353165       10.6883894504        7.7002879510
  H        10.8289254981        9.0015561129        7.6647142539
  H        10.5592404759       10.1530792743        9.0275229553
  H        -2.7891680706       15.1754528370       16.3147780818
  C        -2.4863408519       14.1351938833       16.3430898365
  H        -3.4145932498       13.6224309726       16.7397874064
  C        -1.3731249551       13.8989240982       17.4052399301
  C        -2.2394849316       13.6516214271       14.8981672308
  C        -1.8217637959       14.1103281689       18.9017149345
  H        -0.6677745952       13.0153251333       17.2259254549
  H        -0.6819399911       14.7885081807       17.2170934244
  H        -1.5738137352       12.8095871188       14.8221255434
  H        -3.1194398451       13.3292438969       14.2739369853
  H        -1.8897630145       14.5377696182       14.3832707154
  C        -1.5234143485       12.9867320188       19.8492475139
  H        -2.9247681663       14.3359103197       18.8606530539
  H        -1.4940186869       15.1372606974       19.1466956728
  C        -2.0375496647       13.1566749784       21.3478616582
  H        -2.1774720971       12.0416047180       19.5626377258
  H        -0.5126101414       12.6591386927       19.7810545835
  C        -0.9519390184       12.6777254243       22.3183619189
  H        -2.8227822050       12.4598452959       21.4163923944
  H        -2.4895286726       14.1207941908       21.4522218322
  C         0.2543054004       13.5745395749       22.5323760482
  H        -1.5326613352       12.4844011385       23.2607157647
  H        -0.7324444974       11.6588639191       21.9306413748
  C         1.3670554242       12.8517838658       23.3299806122
  H         0.5399710645       13.9444970869       21.5954415751
  H        -0.1471215963       14.4947476241       22.9927568465
  C         1.7891141186       11.5597564656       22.5584245572
  C         1.0348263128       12.1062028325       24.5488637256
  C         2.5930594945       13.7647182437       23.5391047120
  C         1.6650898443       10.4525241641       23.3536757463
  C         2.3248838008       11.1897423190       21.2850430734
  C         1.1467481872       10.7723431380       24.6236613217
  C         0.5444419129       12.7549239603       25.7043747850
  H         2.9060447364       14.1432516459       22.6189934537
  H         2.2905356555       14.6966916483       24.0946617501
  C         3.8404333881       13.1013623647       24.3284820821
  S         2.1234427155        9.0179485562       22.6375767199
  C         2.4494226085        9.7867654635       21.1072548257
  H         2.5456822753       11.9571951514       20.5579836425
  C         0.6543330705       10.0952018143       25.7567760069
  H         0.4839528680       13.8179834270       25.7449341130
  C         0.1245734449       12.0461209891       26.8352368198
  H         4.2574397211       12.2738572678       23.7922660813
  H         3.4900002467       12.8509651591       25.3723781126
  C         5.0379639870       14.1009091999       24.5274417986
  C         2.8576708460        9.0570700679       19.8766492032
  C         0.1884148690       10.6934810424       26.8987094918
  H         0.6437414778        9.0018488822       25.8054976397
  C        -0.3944394559       12.4282217863       28.0919160720
  H         5.7728715041       13.6532133527       25.1543784278
  H         4.7583912933       14.9393960541       25.0290196630
  C         5.8741837054       14.4751070213       23.2393809242
  C         2.7201043762        7.6638196144       19.5566049454
  C         3.4167544048        9.9267351176       18.7597427160
  C        -0.3344242670        9.9971455158       28.1212498337
  C        -0.6703082767       11.3164368797       28.8590128878
  S        -0.7519623561       13.9436543715       28.9209752787
  H         6.7257051795       14.9125160183       23.7172629734
  H         5.2663979287       15.2138562527       22.7356480061
  C         6.3499519329       13.3099664174       22.3591015484
  N         2.2618149759        6.6866753966       20.4520770306
  C         3.0302216451        7.0980528367       18.3190986608
  C         3.6105933991        9.3179450354       17.4778373074
  H         3.3930834288       10.9450540016       18.8507140141
  C         0.7791738442        9.2018047491       28.8366323994
  C        -1.6193578201        9.1299096829       27.9760716290
  C        -1.1734462181       11.6956895224       30.1306146588
  C        -1.2043464708       13.0649786479       30.3372601053
  H         6.7473496525       12.4422658728       22.8532395027
  H         5.4986165383       12.9456187866       21.7810454630
  C         7.4274565686       13.7632902920       21.4001861043
  S         2.3389227342        5.2261750688       19.7242199311
  N         2.8068263899        5.7127478582       18.2769602279
  C         3.4836929669        7.8905480656       17.2021707971
  H         3.7742237631        9.9720958768       16.7204595802
  H         1.2331896047        8.4082087969       28.2354239382
  H         0.2439922653        8.6611477601       29.6220606963
  C         1.9344814284        9.9418828321       29.5071155975
  H        -1.3411859154        8.2399869921       27.3397178818
  H        -1.9256150506        8.6196045592       28.8376198347
  C        -2.6858760922        9.9594268192       27.2108504226
  H        -1.2951395684       10.9717474578       30.9054870170
  C        -1.5468971382       13.7782401773       31.6022726392
  H         8.3890274601       13.8893320938       21.8589110324
  H         7.2371372123       14.8058047601       21.0438007869
  C         7.5534609219       12.7868987952       20.1660818090
  C         3.6373408522        7.2880487717       15.9390775395
  H         2.3465201377       10.7333283420       28.8800594131
  H         1.5266678908       10.5103260721       30.3181468532
  C         2.9742133517        9.0813713144       30.1652962287
  H        -2.2980786285       10.2519936336       26.2667939226
  H        -3.0139297191       10.8743695194       27.7228881143
  C        -3.9374306242        9.1164264424       26.9112067739
  C        -1.6568282001       15.1778398817       31.8156324839
  C        -1.7441922183       13.0048637605       32.8461311737
  H         8.0373008057       11.8158355021       20.3023644575
  H         6.5149108757       12.5775353843       19.8031854725
  C         8.1678507329       13.4952285386       18.9991340916
  H         3.5857618045        6.2583955435       15.9915321110
  C         4.0408483719        7.7814470062       14.7186816790
  H         3.3003835619        8.3653875629       29.4118692949
  H         2.4462451646        8.5090737738       30.9072246396
  C         4.0378472681        9.9660934046       30.6129651985
  H        -3.8997655597        8.3213182439       26.1896927070
  H        -4.2254810941        8.5615144601       27.7897804951
  C        -4.9783594990       10.1008095896       26.5213079676
  N        -1.3311200038       16.1110371444       30.8677483416
  C        -2.0186447225       15.7418701384       32.9885355813
  C        -1.9865439355       13.5767263197       34.1191127660
  H        -1.5975536039       11.9217140630       32.8962154804
  H         9.2209102520       13.5592117671       19.2171960008
  H         8.2165590120       12.9079832373       18.0523720168
  H         7.7659644145       14.4627031100       18.8580835645
  S         4.4983854100        9.4126398873       14.2752239726
  C         4.0556940100        6.8338159127       13.6030902709
  H         4.3447712961       10.6686417332       29.8758097623
  H         3.6720727783       10.6245543489       31.3471053233
  C         5.2437694443        9.2092421293       31.1972931716
  H        -4.5801147114       10.8359903106       25.7863957374
  H        -5.3839341745       10.6032946624       27.4090619436
  C        -6.0091061946        9.3861004419       25.6501989181
  S        -1.4595998613       17.5660062275       31.4894190437
  N        -1.9572203179       17.1366889023       32.9662596744
  C        -2.2564781704       15.0556921732       34.1928114957
  H        -2.1082939163       12.9362832622       34.8993569760
  C         4.7100404052        8.8786343243       12.6284082496
  N         4.4142554965        7.5644355928       12.4729194423
  O         3.9091496474        5.6269825694       13.6921242093
  H         4.9823731433        8.7571535995       32.1311954563
  H         6.0786213946        9.8854494638       31.3570620652
  C         5.7400413230        8.0422240535       30.2742301534
  H        -5.5875493632        9.0497713038       24.6901530999
  H        -6.1659162223        8.4356408379       26.1228006165
  C        -7.0837026135       10.3957287167       25.3227793159
  C        -2.5853691468       15.7347621576       35.4119962810
  S         5.0639406760        9.8679451566       11.2185148390
  C         4.3726694901        6.8017596573       11.1543706340
  H         5.3510205612        8.1501307230       29.2385682717
  H         6.9072070874        8.1835020156       30.2132444968
  C         5.3639173753        6.6513506103       30.7746240763
  H        -7.5211822976        9.9776645387       24.4385743918
  H        -6.7493868243       11.3716128574       25.0946513119
  C        -8.1760443684       10.4495018886       26.3039959459
  H        -2.1157546736       16.6783625182       35.4822727284
  C        -3.1225208335       15.3079541102       36.6189501265
  H         5.0740651822        7.3030417603       10.4071493655
  H         4.7682766937        5.7850974447       11.3260373776
  C         2.9310626716        7.0273736588       10.5473673290
  H         5.6853809372        5.9205095088       30.0282652106
  H         4.2869150158        6.5873769656       30.9392729073
  C         6.0882294014        6.2513579831       32.0421326756
  H        -7.8056744025       10.2281065460       27.3501837962
  H        -8.3752045348       11.5218942455       26.3550362995
  C        -9.4578123237        9.6509232064       25.9156461847
  S        -3.7156772050       13.7340855136       37.0241655038
  C        -3.3648519287       16.3765865775       37.6257456245
  H         2.9335675938        7.9787710092        9.9898965001
  H         2.6844562792        6.2574004514        9.8745838944
  H         2.1115612824        7.0680199514       11.2328610843
  H         6.3648447951        7.1427703522       32.6008717361
  H         6.9480124825        5.6219568693       31.9611699432
  H         5.4878174449        5.6183938260       32.7226706092
  H        -9.2023113935        8.6119614656       25.7043361371
  H        -9.8715146913       10.1440524661       25.0258233116
  H       -10.2233380473        9.7042319718       26.7144360758
  C        -4.1073355266       14.4351573927       38.5496004238
  N        -4.0003258327       15.7913748516       38.6308450733
  O        -2.8710611578       17.5017664611       37.5240494603
  S        -4.8877618392       13.5705858264       39.8679335678
  C        -4.3285845326       16.5442827030       39.8310160108
  H        -4.4878495914       17.6180521908       39.5717874768
  H        -5.1964940095       16.1521999975       40.3026984210
  C        -3.1000252756       16.5686534761       40.7301935821
  H        -3.1401318245       15.8257276459       41.5405621391
  H        -2.1545878467       16.4731575716       40.2080637251
  H        -3.0117344191       17.5445052436       41.2512272136
