352
 i =    51100, time =    51100.000, E =        25.0847193749
  H         9.5761258277        7.1362905441       31.3639580215
  C        10.5692611647        6.8556796153       31.7967594392
  H        11.1649404966        7.7724111732       31.7041339426
  C        11.2302485340        5.6927116909       31.0508659341
  C        10.5050050861        6.4619734782       33.2578976047
  C        11.4278984528        5.9145947096       29.5610095100
  H        12.2395430246        5.5745753976       31.3408768206
  H        10.6442155770        4.7800417057       31.1473454675
  H         9.5249535674        6.7093553725       33.6119062682
  H        10.7000582152        5.4240556053       33.4173656016
  H        11.3632896535        6.9603408204       33.7143100501
  C        10.2878087370        5.5442476689       28.6424875684
  H        12.1911548599        5.1877166953       29.3835574046
  H        11.7987072837        6.8585257684       29.4587694955
  C        10.7489775764        5.6363450868       27.1915399168
  H         9.8620854127        4.4818501872       28.8751161178
  H         9.4016020183        6.2056030956       28.8034562705
  C         9.7026638371        5.0350489859       26.2175785651
  H        11.7638128540        5.1504306489       26.9011764926
  H        10.7855388519        6.6828092993       26.9508076567
  C         8.3646495844        5.8032562509       26.2436181485
  H        10.0916648547        4.9421899769       25.2234024001
  H         9.4582263637        4.0033321418       26.4246620883
  C         7.1780863481        5.1548485949       25.4385328615
  H         7.8705438633        5.8730569282       27.1837303183
  H         8.5510329776        6.8807813086       25.9560582753
  C         6.8504987342        3.7724519621       26.0608331896
  C         7.6856935526        4.3963657239       24.2553890213
  C         5.8649198807        6.0646660611       25.2823321036
  C         7.0456006833        2.6756155993       25.2772126560
  C         6.3641978722        3.4671495492       27.3788462293
  C         7.6438504615        3.0752231037       24.1026407678
  C         8.0318815032        5.1161277501       23.0863381612
  H         6.1344903613        6.8847655375       24.6127292824
  H         5.5867165975        6.4829334592       26.2731146937
  C         4.7217543329        5.3216576081       24.6193859511
  S         6.5248791276        1.2010603466       26.0576433187
  C         6.1547592527        2.1148403295       27.5307953714
  H         6.3266089749        4.2190423667       28.0805241569
  C         8.1689308531        2.5154090964       23.0197592736
  H         7.7801905851        6.1870199254       23.1392990436
  C         8.5342136866        4.5342775744       21.9801990663
  H         4.9024222282        4.7367149752       23.7240602442
  H         4.6350692191        4.4412160598       25.2310235202
  C         3.4161611954        6.1617245029       24.6114359346
  C         5.7199408222        1.4296771411       28.7272885244
  C         8.6516770826        3.1694689652       21.8301025249
  H         8.0455529618        1.4810349686       23.0052881877
  C         8.9059384591        4.8966302131       20.6873276461
  H         2.7553759150        5.6346546226       23.9798284609
  H         3.4668896352        7.0939375535       24.0536446307
  C         2.9699716529        6.4595859922       26.0755433459
  C         5.7816795834        0.0950221364       28.9880797277
  C         5.2840986864        2.2017666937       29.8982337524
  C         9.0059061783        2.4819579427       20.5297428455
  C         9.2648656303        3.8423872652       19.8704686485
  S         9.0143727734        6.4093008986       19.8602608722
  H         2.3847787103        7.3603660161       25.9806470982
  H         3.7607336238        6.8656842006       26.7801281554
  C         2.1588983273        5.3267098274       26.7670880417
  N         6.2092526598       -0.8887272388       28.0407326507
  C         5.5269037662       -0.4902601678       30.2163601877
  C         4.9252393701        1.6435619955       31.1297738269
  H         5.1887176335        3.2395190752       29.8236891261
  C         7.8218936688        1.6946170707       19.8826535089
  C        10.3494178146        1.7369025749       20.6541027052
  C         9.6968179182        4.1952174199       18.6006419090
  C         9.6075604169        5.5215729508       18.3916557841
  H         1.1727349775        5.2412246290       26.3102603964
  H         2.5818810838        4.3626960964       26.6068374650
  C         1.9179999657        5.7263440217       28.2523610760
  S         6.1884782390       -2.3429463111       28.7110541126
  N         5.6005414837       -1.9111957281       30.1618108646
  C         5.1445433927        0.2256661060       31.3246446135
  H         4.6203586697        2.2862643001       31.9235038753
  H         7.5543287978        0.8406714398       20.4344447931
  H         8.1087400334        1.1952170986       18.9631030441
  C         6.5669931422        2.5091755281       19.6756254550
  H        10.4733224349        1.4238157537       19.5960070622
  H        10.1162260676        0.8317217480       21.2620573525
  C        11.6157967582        2.4413706169       20.9558056434
  H        10.0112024281        3.4324439395       17.9834632209
  C        10.0490846773        6.2235307648       17.1502396293
  H         0.9460226127        5.4055730595       28.6003408700
  H         1.9079562823        6.8108721993       28.1745834228
  C         2.9691860196        5.2795519209       29.1857519049
  C         4.8805479193       -0.3753298338       32.5901335001
  H         6.7365839562        3.2603621333       18.9345688165
  H         6.2319699467        3.0842330161       20.5749262846
  C         5.2834293629        1.6929304747       19.2319822440
  H        11.5614726130        3.2000216540       21.7337581462
  H        11.9145127357        2.9351503180       20.0780551401
  C        12.8885143181        1.5510985346       21.1232900823
  C        10.1242646350        7.5866954066       16.9946768345
  C        10.2310471162        5.4087747588       15.8632406475
  H         3.3198959710        4.2399532648       29.0438203983
  H         3.8625707540        5.8564711532       29.1008715080
  C         2.5799305036        5.4726535749       30.6077168837
  H         4.9693611396       -1.4262011463       32.6490767692
  C         4.4214056203        0.1754898883       33.8157097792
  H         4.4864784119        1.5516989252       20.0813814036
  H         5.7804153293        0.7059099482       19.0433395810
  C         4.4841074011        2.1164949718       18.0178958814
  H        12.8751762329        0.9377401445       22.0150931455
  H        12.9584795762        0.9218226109       20.3102183886
  C        14.1748589580        2.4383493908       21.0337653018
  N         9.9081116920        8.5091365669       18.0179353969
  C        10.4582157140        8.1575377688       15.7352752956
  C        10.5484873658        5.9682992030       14.6341436001
  H        10.2073106905        4.3045244259       15.9893258564
  H         3.2302582879        4.8569373539       31.2233221202
  H         2.8162819534        6.4885088773       30.9653056237
  H         1.5239119405        5.2652828572       30.6967715288
  S         4.1561522886        1.8082104762       34.3634954625
  C         4.3871600453       -0.8164812212       34.9526797307
  H         4.0276538949        3.0739981782       18.1025094823
  H         5.0286670851        2.0276700174       17.1342543800
  C         3.3492420163        1.1643564872       17.8509027506
  H        14.1049391671        3.1167026981       20.1751086951
  H        15.0647542333        1.8316324602       20.8293184615
  C        14.4487339958        3.2236596066       22.3174944998
  S         9.9302976675        9.9228142168       17.2759230044
  N        10.5262708634        9.4806008976       15.8616493354
  C        10.7399197790        7.4337080476       14.5389117592
  H        10.5515430807        5.3671498359       13.7379687801
  C         4.0066223016        1.1766767756       36.0217455739
  N         4.0459313221       -0.1626987874       36.0868298172
  O         4.5182610150       -2.0336443709       34.8058645379
  H         2.7413056345        1.3337092718       16.9963537672
  H         2.6573140583        1.2480950072       18.6480250384
  C         3.8103908704       -0.3215371982       17.9101780662
  H        15.1155914208        4.0619735747       22.0401216584
  H        13.5612739659        3.6949631473       22.6671831023
  C        15.1080712298        2.2716537368       23.2974204832
  C        10.9939596132        8.2633171147       13.3567958620
  S         3.4941313382        2.0889534650       37.4597148345
  C         3.8812391233       -0.9766728957       37.2529188204
  H         4.5489946348       -0.4287034381       17.1524625762
  H         4.1929598485       -0.6324505265       18.8908092843
  C         2.5057993799       -1.1229946807       17.6027234153
  H        14.7907842135        1.2068394224       23.1200486559
  H        14.6853162673        2.5302842218       24.2170953620
  C        16.5861042704        2.3605351427       23.4240786227
  H        10.9077727298        9.3525615231       13.5421191493
  C        11.3817397063        8.0037806475       12.0662750778
  H         3.1091933960       -0.5566921294       37.9169360437
  H         3.4731410940       -1.9241750734       36.8735039439
  C         5.2728475158       -1.0902160010       37.9259592927
  H         2.7920353290       -2.0927141834       17.3364778879
  H         1.9946877834       -0.7324478558       16.7183852917
  C         1.5653778623       -1.3190964635       18.7571840539
  H        16.8575797396        3.3785344823       23.7325640482
  H        17.0344261977        1.7140870823       24.2631889155
  C        17.4233634009        2.0807095225       22.1491495292
  S        11.9655720812        6.5244797774       11.5185619710
  C        11.6107048991        9.1836531014       11.1420062893
  H         5.3172677148       -1.7961612710       38.7696168946
  H         5.9923486847       -1.4137797593       37.2370722133
  H         5.5933757609       -0.0835273766       38.2515721756
  H         0.9284811718       -2.0743831235       18.4065235943
  H         0.8483810531       -0.5182723302       19.0327292022
  H         2.0750245049       -1.6157599457       19.6802174123
  H        17.2082599647        2.9077200523       21.4454979142
  H        17.0774171501        1.1925867649       21.6708313530
  H        18.4937320421        2.0289001182       22.3897580230
  C        12.4178752011        7.3087005587       10.0987792921
  N        12.1720144265        8.6544448931       10.0472325567
  O        11.2945151850       10.3422729711       11.3297166199
  S        13.3951926162        6.5677438498        8.8218392306
  C        12.3163530399        9.3465516223        8.7716305296
  H        12.6154824340       10.3603349628        9.1201763126
  H        13.0576193854        9.0425068047        8.0592591868
  C        10.9542139770        9.3567833826        8.0921839080
  H        10.6541601744       10.4171520255        7.7989571659
  H        10.9262548528        8.7141409650        7.1898697283
  H        10.2679790518        8.7577545901        8.6947231814
  H        -1.3348601273       13.1308789458       17.1035434691
  C        -1.5893595405       14.1032750903       16.7261111232
  H        -0.7075455914       14.7819493346       16.6819671734
  C        -2.5299377592       14.7339735407       17.7255832496
  C        -2.2132228735       13.9211686267       15.3797387767
  C        -3.0496692637       13.7468680430       18.7925888708
  H        -1.9938412186       15.5286561736       18.2988669643
  H        -3.2164259253       15.4019010911       17.1991557879
  H        -2.8392855158       13.0176289000       15.3080036718
  H        -2.8117152613       14.8131714003       15.0774828337
  H        -1.4659017180       13.8654860038       14.6050842454
  C        -1.9148951965       13.3948310515       19.8016785539
  H        -3.6190438659       12.9573883102       18.3180587527
  H        -3.7950882294       14.1954908580       19.4556977110
  C        -2.3403847802       13.3246564041       21.2482250775
  H        -1.4275076950       12.4397002143       19.5175157966
  H        -1.0778876203       14.1242740636       19.7506898336
  C        -1.3418231318       12.8600670786       22.2295250020
  H        -3.0670298198       12.5705306614       21.2457849322
  H        -2.8006033312       14.3368085844       21.5503997530
  C        -0.0978525151       13.7296690381       22.5581949711
  H        -1.8347657875       12.6115035962       23.1596790340
  H        -1.0010705779       11.8977333959       21.8316658163
  C         1.1142783729       13.0454051743       23.3590384154
  H         0.1998547016       14.0256055888       21.5722090963
  H        -0.4467931989       14.6405454442       23.0000516169
  C         1.4902896465       11.7965947443       22.6030171562
  C         0.6347927639       12.1849184858       24.5322946830
  C         2.2961241319       13.9959895183       23.6444585979
  C         1.1814375216       10.6042702882       23.3331731894
  C         2.0958032121       11.5120268633       21.3168267143
  C         0.6776276652       10.8429707604       24.5840992540
  C         0.2505152327       12.9221057126       25.6528469837
  H         2.5043244517       14.3410790806       22.6015035812
  H         2.1686913405       14.9323378497       24.1381224834
  C         3.5365838781       13.2020046442       24.1291632657
  S         1.5642254040        9.2299743460       22.4073246850
  C         2.1561014994       10.1593145402       21.0976693706
  H         2.3695053387       12.3299711726       20.6305640319
  C         0.2816087138       10.2724703441       25.7738850078
  H         0.2727237840       14.0102879667       25.5665884905
  C        -0.1881896684       12.3408947621       26.8268754645
  H         3.7907973847       12.4990276125       23.3192381731
  H         3.2490016925       12.5611850402       24.9888383584
  C         4.8327356838       14.0149038732       24.4450034968
  C         2.6232780944        9.5612914529       19.8534420744
  C        -0.1170066594       10.9763960039       26.9543168762
  H         0.4518704097        9.2310064725       25.8589994857
  C        -0.5857431254       12.6769860103       28.1339354018
  H         5.6712712150       13.3560389124       24.6995745898
  H         4.6749550234       14.6229933527       25.3114471319
  C         5.4878946813       14.7206811589       23.1854012078
  C         2.5941193190        8.1940728707       19.4518234106
  C         3.1469546416       10.3681779686       18.7042463772
  C        -0.5194828323       10.2798206254       28.2110114701
  C        -0.8595100099       11.5783853212       28.9159018308
  S        -0.8344745555       14.1614641770       29.0161417767
  H         6.3974256403       15.2168960233       23.5124314505
  H         4.9806620283       15.5240441496       22.7360481267
  C         6.1561625589       13.6621319616       22.2676510804
  N         2.0711047431        7.1608065252       20.2750928017
  C         2.9332159366        7.7145050178       18.2080967491
  C         3.3945109710        9.9176731848       17.3993954601
  H         3.2340273329       11.3911844881       18.8702399423
  C         0.6734685178        9.4930864570       28.9046093119
  C        -1.7337335843        9.4410039149       27.9784383452
  C        -1.2617347807       11.9148305880       30.1958877975
  C        -1.3074350792       13.2549379163       30.3997580286
  H         6.8166049283       13.1326978812       22.9019639176
  H         5.3055343913       13.0422050801       22.0033513199
  C         6.8184900642       14.0893868590       21.0133002447
  S         2.2463988656        5.7001805050       19.5320954200
  N         2.7997530814        6.2938030017       18.1215143844
  C         3.3111273817        8.4889612693       17.0671546115
  H         3.7053360339       10.6134723129       16.6499731502
  H         1.2104115275        9.0163490824       28.1156288638
  H         0.2001927056        8.8311613061       29.6810167270
  C         1.6966320129       10.4760608900       29.5968910082
  H        -1.6178657041        9.0846325861       26.9660458497
  H        -1.5968357041        8.4872976725       28.5438243132
  C        -3.1162809999       10.1580635355       28.0951658056
  H        -1.3761882524       11.1655957016       31.0136098118
  C        -1.6392403922       14.0210615823       31.6792407884
  H         7.8786228892       14.3154107512       21.1940927324
  H         6.3324886351       14.9579860748       20.6383866699
  C         6.7521380639       12.9954699520       19.9290452049
  C         3.5279723196        7.8929538316       15.7771000375
  H         1.9849212467       11.2970447613       28.9145772396
  H         1.1449859728       10.8885498250       30.4332806724
  C         2.9047345431        9.8126651678       30.1614325820
  H        -3.1870212931       11.0611688768       27.5524603359
  H        -3.2765255424       10.3664386218       29.1843800232
  C        -4.2146292969        9.2781184808       27.5733663870
  C        -1.7579957155       15.4100962906       31.9073988535
  C        -1.7289681442       13.1908694773       32.8910111324
  H         7.2789451514       12.1432564151       20.2485263334
  H         5.6907687445       12.7499116871       19.7605271814
  C         7.3350956663       13.6441739056       18.6505296357
  H         3.1896038777        6.8660082770       15.6623363254
  C         3.7736023653        8.3981412833       14.4813358520
  H         3.2165508196        9.0790053776       29.4363191186
  H         2.6343716870        9.2010960292       31.0925705674
  C         4.0493163293       10.7921536682       30.4367519991
  H        -3.9757749255        8.8594469302       26.5290364581
  H        -4.2784554353        8.4342909512       28.2551998909
  C        -5.5249548405       10.0092213252       27.4197240685
  N        -1.5947662635       16.3878121594       30.9005845161
  C        -2.1310876570       15.9784209795       33.1169932838
  C        -2.0725318402       13.7916052546       34.0929273927
  H        -1.5945564205       12.1292901079       32.7712723442
  H         6.5567809723       13.9325600725       17.8735462984
  H         7.9405367718       14.5104758063       18.8741016775
  H         7.9628106354       12.9207888012       18.1459514010
  S         4.0667593101       10.0964050588       14.0689625983
  C         3.8719985736        7.4610776142       13.3951091143
  H         4.0551773536       11.5602617801       29.6226181599
  H         3.8793728876       11.3332692659       31.3858713725
  C         5.4651354474       10.2015365339       30.2694810922
  H        -5.7112936708       10.7743837091       28.1652929157
  H        -6.2919842666        9.2899703922       27.5645212868
  C        -5.6628079294       10.5645962382       26.0026508377
  S        -1.7499890823       17.8255768708       31.5771435202
  N        -2.1838637373       17.3756608495       33.0915553552
  C        -2.3627801815       15.2268513020       34.2542596634
  H        -2.3713437625       13.1321206536       34.8661267934
  C         4.3579118287        9.4614278341       12.4001552151
  N         4.3543593494        8.1020198974       12.2997115165
  O         3.7865142427        6.2267584531       13.4997362481
  H         6.2477297853       10.7401960608       30.7583965923
  H         5.7076618124       10.1717023081       29.1642836838
  C         5.6929557765        8.8742768256       30.8689658031
  H        -4.9498162405       11.3986512126       25.9400823988
  H        -5.3510957348        9.9189190439       25.2294209069
  C        -7.1251489256       10.9295853817       25.5689765168
  C        -2.7981262168       15.8850196527       35.5101071381
  S         4.9986960537       10.4162038909       11.0419813922
  C         4.6574108976        7.3879793439       10.9970080110
  H         5.9831791994        9.0106190552       31.9459362340
  H         4.8000676702        8.2531458752       30.9261800052
  C         6.8039186570        7.9884380473       30.2893662372
  H        -7.1499098193       11.2325709153       24.5034899764
  H        -7.5673134739       11.7480309818       26.1342466551
  C        -8.0406800183        9.8363767467       25.7734835282
  H        -2.9131563822       16.8842217945       35.5002760879
  C        -3.3248443944       15.4201744146       36.6758180349
  H         5.4537360343        7.8978953455       10.4080935794
  H         5.1375239010        6.4488596028       11.2652932583
  C         3.3378365126        7.2678456213       10.1334244104
  H         7.7088537160        8.5746149250       30.2832785809
  H         6.4847747265        7.8333265292       29.2345685044
  C         6.9749753022        6.6328186337       31.0651459180
  H        -7.6207721576        8.9187863090       25.4923472826
  H        -8.2143000379        9.6459418093       26.8676579938
  C        -9.3724364243        9.8574133505       25.0657825145
  S        -3.8153438808       13.8113261273       36.9920013749
  C        -3.5930721787       16.4155992267       37.7435759800
  H         3.4551101803        7.6239468693        9.0897867271
  H         2.9595289206        6.2195602688       10.0481108929
  H         2.5662507476        7.8913179113       10.5242871305
  H         7.3216055318        6.8790415641       32.1047767431
  H         7.7537267845        6.0486459850       30.5456596204
  H         6.0814528575        6.0559651385       31.1416318617
  H       -10.0135288812        9.0761233487       25.4602606388
  H        -9.2707779056        9.8108405457       23.9763610910
  H        -9.8982450987       10.8212606767       25.1474085572
  C        -4.2556837581       14.4069996764       38.5445555737
  N        -4.1090482843       15.7100221334       38.7824192824
  O        -3.3330462267       17.5978735015       37.6730648115
  S        -4.8029397886       13.2979521567       39.8317245846
  C        -4.4280657584       16.3362135417       40.0400465971
  H        -4.6156988420       17.3297256823       39.8045500593
  H        -5.3475532453       15.8268405761       40.4058256330
  C        -3.1551190268       16.1934743570       40.9604093221
  H        -2.7965167291       17.1885999281       41.3515936313
  H        -3.3506308711       15.5059095754       41.7683737257
  H        -2.2982092143       15.8037433637       40.4659821136
