352
 i =    44500, time =    44500.000, E =        25.4287957504
  H        11.1776861360        7.3916742905       32.1809603089
  C        11.0380906196        6.3756248355       32.0843193747
  H        12.0245806220        5.9576482040       31.9377219374
  C        10.1394295980        6.1689378804       30.9221223091
  C        10.5407457855        5.8451336787       33.4287199931
  C        10.9515298768        5.9039137030       29.6937491309
  H         9.4508068785        5.3290975121       31.1818042803
  H         9.4878565479        6.9623063728       30.7154172433
  H        11.2471310454        6.2022541862       34.1841629910
  H         9.6486876154        6.3530106517       33.5796424319
  H        10.4078152260        4.7672856300       33.4585622282
  C         9.9439502070        5.7352878462       28.5756913255
  H        11.6499560597        5.0938797916       29.9410841949
  H        11.6123746332        6.7931234061       29.5752474488
  C        10.5385884544        5.8031223963       27.1623639431
  H         9.5421528535        4.7248353967       28.7468670907
  H         9.1248378133        6.3626731302       28.5741961104
  C         9.6398472470        5.0739103925       26.1982897808
  H        11.5323137568        5.4148556077       27.1676289720
  H        10.5534714377        6.8227459743       26.9588136885
  C         8.2954269140        5.8563214840       25.8004406964
  H        10.2173409651        5.0099339784       25.2850919437
  H         9.4679195657        3.9907607101       26.5159853773
  C         7.1747016159        5.0254739148       25.1303672725
  H         7.8628595065        6.3721824058       26.6464981187
  H         8.6063613908        6.6651465582       25.1603689267
  C         6.9570789789        3.6811345820       25.8515897225
  C         7.7437287956        4.2244302116       23.9593269848
  C         5.9697882289        5.8001175176       24.7754726532
  C         7.2436312774        2.5767746284       25.1126152467
  C         6.3658478503        3.3793091539       27.0715821512
  C         7.7896345609        2.8543660561       23.9281774131
  C         8.3378623499        4.8446205200       22.8170333860
  H         6.2816567678        6.5124778287       24.0262627112
  H         5.7079005506        6.4212273316       25.6180575132
  C         4.7292483226        5.0508823914       24.1974980840
  S         6.8201008877        1.1617919456       25.8718765323
  C         6.2374674554        2.0319524798       27.2942643140
  H         5.9471547525        4.0766886332       27.7366747718
  C         8.1360877426        2.2470224973       22.7845712460
  H         8.4786969418        5.9183995920       22.7066720156
  C         8.6108922465        4.2417931828       21.6377602312
  H         4.8966549197        4.6048103191       23.2223438228
  H         4.5151180415        4.2519178616       24.9149391740
  C         3.5646807913        6.0517440400       24.0228199668
  C         5.7238958330        1.3463642655       28.5961813043
  C         8.4925546054        2.8440517095       21.5389878568
  H         8.1033130019        1.1188117395       22.7516143072
  C         9.0009580858        4.5940147539       20.3641620367
  H         2.8781473924        5.8125004941       23.2324072571
  H         4.0439349196        6.9661681992       23.6261490046
  C         2.7775266911        6.2843028857       25.3618700363
  C         5.7088197092       -0.0255402718       28.8857431374
  C         5.5232259540        2.2382955522       29.7701855195
  C         8.7775883847        2.1767275044       20.2447265531
  C         9.1178224907        3.4943715836       19.5129631496
  S         9.2906193137        6.0702652572       19.6088777631
  H         2.1106823264        7.1090113219       25.1959918198
  H         3.5263726071        6.7382144602       26.0555707008
  C         1.9809555799        5.1754154630       25.9368296814
  N         5.8662697073       -1.0273292927       27.9493469915
  C         5.4905678664       -0.6301750546       30.0967613976
  C         5.2031632786        1.6760267887       30.9951854197
  H         5.5724131884        3.2757690070       29.7158622874
  C         7.5699735321        1.5225922055       19.5556155920
  C         9.9946618520        1.2497393194       20.3179462402
  C         9.3211564481        3.8583246081       18.1731726092
  C         9.5171671725        5.2074501251       18.0775073339
  H         1.3152975377        4.9488109106       25.1971583541
  H         2.6727194786        4.2975178827       26.0478610445
  C         1.1680007746        5.5143280085       27.2001480924
  S         5.7807437664       -2.5190911589       28.6265636158
  N         5.6378694491       -2.0187134975       30.1326826890
  C         5.3025112773        0.1914293886       31.2085264067
  H         5.1065196481        2.3194285493       31.8462083667
  H         7.1250693281        0.7982492354       20.2704791230
  H         8.0530160645        1.0566018814       18.7050683860
  C         6.4267285543        2.4850664626       19.1147387219
  H        10.2684490007        0.9300062247       19.3300249758
  H         9.7713473550        0.3729354194       20.8357792934
  C        11.1978070068        1.9571471605       20.9707799678
  H         9.4375670935        3.0758249438       17.4725461878
  C        10.0437877390        6.0156438800       16.8675768566
  H         0.4965308453        4.7159059763       27.3802079922
  H         0.5928561420        6.4745773394       27.2384252336
  C         2.1694111118        5.5160891905       28.3752144289
  C         5.2107301425       -0.4103320869       32.5369909462
  H         6.7621228725        3.3570071841       18.4388259325
  H         5.9972834481        2.9308415452       20.0010496443
  C         5.3143803217        1.6361138372       18.4846554688
  H        10.8865539688        2.2810330014       21.9653204849
  H        11.5393679021        2.8026291343       20.4434504230
  C        12.4073808332        1.0226182069       21.1208616161
  C        10.1399248392        7.4479050037       16.8403495303
  C        10.2197869248        5.3616191818       15.5480304982
  H         2.6032802770        4.5280342909       28.3478833184
  H         3.0156042222        6.1383619129       28.2672237353
  C         1.3788919779        5.6828037114       29.6514479917
  H         5.3421424812       -1.5013270896       32.5209287636
  C         4.8601484968        0.0409131304       33.7706901731
  H         4.8458269820        1.0340461395       19.2564033935
  H         5.7446226972        0.9570404627       17.8377428925
  C         4.3581561846        2.4719214406       17.5771092194
  H        12.4436832005        0.4649043613       22.0783557519
  H        12.5405562246        0.3742443065       20.2668249697
  C        13.7286123219        1.7820432894       21.0967625122
  N         9.9356483660        8.3663706000       17.8869829282
  C        10.3877926795        8.1801783079       15.7287077733
  C        10.3745329735        6.0947057337       14.3617025485
  H         9.9864624977        4.3215490243       15.5520381798
  H         0.7886540224        4.7635827203       29.7565073444
  H         1.9763764936        5.6446693373       30.4966836235
  H         0.8718029019        6.6029804777       29.6836323948
  S         4.6179614532        1.6973354418       34.2916527532
  C         4.7331815770       -1.0124453917       34.8791252679
  H         4.3537805651        3.4959003069       17.5743932661
  H         4.6728854077        2.2556556658       16.5647860230
  C         2.9228791728        1.9907609676       17.8285843563
  H        13.7875565297        2.4979504895       20.3176360510
  H        14.4876968963        1.1378769565       20.7573816036
  C        14.1188757750        2.3868005791       22.3678185623
  S        10.0500548626        9.8991940745       17.4250947817
  N        10.5683585125        9.6144358919       15.9352332942
  C        10.5327833582        7.5914215380       14.4533897079
  H        10.4170812058        5.4813686521       13.4245830799
  C         4.2527032656        0.9841815702       35.8863949260
  N         4.3412673436       -0.4115405832       36.0225699963
  O         4.8270825750       -2.2256174354       34.7317962130
  H         2.2206862257        2.7440616729       17.3793114617
  H         2.7296128286        2.0152974944       18.9014340712
  C         2.5819314946        0.7043579627       17.1907190161
  H        14.6656800115        3.3091783934       22.2062904988
  H        13.2342431429        2.6848713281       22.9952512059
  C        15.0195243776        1.4408599783       23.2617237404
  C        10.7894142891        8.4452192135       13.2822050495
  S         3.9086903321        1.9215714574       37.3532395289
  C         4.2311644356       -1.0396864810       37.3708792900
  H         1.8340007129        0.8327844714       16.4152956662
  H         3.4768049277        0.3978061440       16.6702390514
  C         2.1061031183       -0.4843721141       18.0826643759
  H        15.1626356825        0.4846726663       22.8384688323
  H        14.4784457525        1.2373111008       24.1626086692
  C        16.2848275810        2.0698555315       23.6823059910
  H        10.5159213879        9.4253199795       13.4821608485
  C        11.2296778405        8.1821766757       12.0063775755
  H         3.4626118616       -0.5090808214       37.9141450062
  H         3.9358781923       -2.0474640254       37.2390882339
  C         5.5127288211       -0.8950283661       38.2270354083
  H         1.0264478048       -0.2212759651       18.2026988916
  H         2.6096175237       -0.4357851638       19.0159225631
  C         2.2315972599       -1.7734475663       17.4311386081
  H        16.0313934214        3.0699781007       23.9436156527
  H        16.7332387535        1.5610270110       24.5300508714
  C        17.3587757622        2.0280769480       22.5691650433
  S        11.8367303029        6.7220195199       11.3303062502
  C        11.3497537175        9.3655489542       11.1068980334
  H         5.3394207805       -0.2886919662       39.1255909625
  H         6.0156984878       -1.8440777610       38.4674281405
  H         6.3418836692       -0.4846141899       37.7438811315
  H         3.2903524166       -1.8838851123       17.1581239726
  H         1.7034538398       -1.9393782190       16.5237339069
  H         1.8396184588       -2.5249925466       18.1304129196
  H        17.7205878595        1.0218691944       22.4325926298
  H        18.2550760324        2.6052659761       22.8231767437
  H        17.0489803658        2.4376705151       21.6473982470
  C        12.1900292458        7.6801977205        9.9036067345
  N        11.9657139652        9.0249607453        9.9361179348
  O        10.8714493759       10.4848791202       11.4004344792
  S        13.2832689975        7.1911282959        8.6079775593
  C        12.0815194213       10.0106674049        8.8694696999
  H        12.1590527151       10.9647811060        9.1811236638
  H        13.0677375010        9.9344325581        8.3688489017
  C        10.9194758222       10.0081834936        7.7787472322
  H        10.7844163360        9.0938347959        7.1159623671
  H         9.9631762342       10.1307809663        8.2736411267
  H        10.9844543071       10.8746130006        7.0693364983
  H        -1.7919252104       12.7892063607       16.9905248945
  C        -2.1019654208       13.7349057834       16.6848574685
  H        -1.1967760063       14.1046869976       16.2504455578
  C        -2.4808825598       14.6063965849       17.8964069507
  C        -3.1878755312       13.4937034328       15.5499716716
  C        -3.2502035865       13.6555646361       18.8208363348
  H        -1.5393507189       14.9825957788       18.2190901091
  H        -3.1953729194       15.3628952399       17.8467980440
  H        -4.1217038770       14.1027084229       15.4763510788
  H        -2.7010746737       13.6686024597       14.6249604265
  H        -3.3868288398       12.3922037729       15.6881848256
  C        -2.3283213243       12.9999327592       19.7637876640
  H        -3.8774807950       13.0206463736       18.1977275107
  H        -3.8883905023       14.3539651061       19.4081434204
  C        -2.5127032297       13.4348700528       21.2253357704
  H        -2.5755142429       11.9188159457       19.7845211787
  H        -1.2906909400       13.0434948994       19.4265847166
  C        -1.5865343477       12.8724530117       22.2154541292
  H        -3.5288063544       13.1446142814       21.5404831612
  H        -2.4352752795       14.5006407699       21.2987220153
  C        -0.2822825633       13.7372579150       22.4145749507
  H        -2.0323499682       12.8253476649       23.2256411870
  H        -1.3072893137       11.8584440394       22.0366138125
  C         0.8402512143       13.0450011075       23.2168758100
  H        -0.0339402610       13.9833166589       21.4014650703
  H        -0.6719318381       14.6821866685       22.8932728379
  C         1.2504062682       11.7075138061       22.6116055563
  C         0.2508058222       12.2523526008       24.4090048317
  C         2.0302601752       13.9744705236       23.5583004239
  C         0.9173810851       10.5943155480       23.3591597349
  C         1.9843676165       11.2993299001       21.4708269710
  C         0.2056501593       10.9143766765       24.4984796662
  C        -0.1905617837       12.9192301916       25.6057952735
  H         2.2291197904       14.5933107850       22.7366359137
  H         1.8784714326       14.6594725559       24.4652777857
  C         3.2393134432       13.2322188780       24.1261583480
  S         1.4854712038        9.0800903416       22.6594675544
  C         2.1266036102        9.9682280553       21.3268122802
  H         2.2627299987       12.0663278935       20.7760851465
  C        -0.2072456871       10.3236636197       25.6535970735
  H        -0.2613717177       13.9567419293       25.7279109382
  C        -0.5672732956       12.2848159430       26.7181050724
  H         3.6201638777       12.5016720380       23.3724489526
  H         2.9420717268       12.6770676357       24.9848982327
  C         4.3054550406       14.2294565795       24.5259992435
  C         2.5652729508        9.2515179123       20.0686917434
  C        -0.5231477149       10.9472755779       26.8332356997
  H        -0.0271636590        9.2232772079       25.7437111200
  C        -0.8804732852       12.6922955834       27.9485278349
  H         4.9809899324       13.8623091764       25.3073928447
  H         3.8996792956       15.1472146359       24.9165914884
  C         5.1743668934       14.6676088373       23.3450433889
  C         2.4760375410        7.8207641336       19.7595019945
  C         2.8417108750       10.0548329275       18.8816000658
  C        -0.9099210911       10.2186409979       28.1111318333
  C        -1.0051400168       11.6095379559       28.8118890812
  S        -1.0329599416       14.1876134694       28.6898446516
  H         5.8748220944       15.4688471059       23.5772812785
  H         4.6356883965       15.1775999464       22.5229544961
  C         6.1163948573       13.5163115810       22.8975791482
  N         2.1578810077        6.7944175681       20.6874463903
  C         2.7468324490        7.3048465877       18.4938295814
  C         3.1803061231        9.6026770052       17.6535041044
  H         2.8479222656       11.1385932024       18.9143597702
  C         0.3732838822        9.3846867697       28.4711649051
  C        -2.2728560303        9.4312501604       28.0062411154
  C        -1.1674170308       12.0284302545       30.1476379181
  C        -1.3025451750       13.3779227744       30.2716540426
  H         6.8453853727       13.4192123479       23.7201982697
  H         5.5516651936       12.6096700467       22.7527685539
  C         7.0180669291       13.7839772822       21.6790870541
  S         2.3770697269        5.3201564360       19.9138561326
  N         2.6522708274        5.8580142219       18.4355351965
  C         3.0761521204        8.1326533285       17.3780363752
  H         3.3688937139       10.2890683195       16.8120068321
  H         0.6754809916        8.6503836835       27.7198930233
  H         0.0405724672        8.7969739267       29.3393131474
  C         1.6095823014       10.1789253547       28.9633672064
  H        -1.9612684257        8.6311435893       27.3049426420
  H        -2.5767725881        8.8867250803       28.9520173501
  C        -3.5456987292       10.2074213735       27.5845518192
  H        -1.3002355031       11.3087459834       30.9639645993
  C        -1.6494247624       14.0831374819       31.5521699620
  H         7.8399989186       13.0688683589       21.6512915472
  H         7.4772541344       14.7747135733       21.7340978409
  C         6.2491890391       13.4235162088       20.3947560762
  C         3.2295958116        7.4357488696       16.0814231842
  H         1.9839009956       10.9331499674       28.2771887054
  H         1.3029456971       10.7716999460       29.8956320265
  C         2.7269557674        9.2802997471       29.4426640592
  H        -3.3970726954       10.7112589095       26.6174851816
  H        -3.8152604411       11.0984927936       28.1461103866
  C        -4.7789930483        9.4059993309       27.4471001521
  C        -1.5429416950       15.4421054171       31.7049191299
  C        -1.8429107252       13.2085928588       32.7299629922
  H         6.8752032145       13.4660074624       19.5082679983
  H         6.0105236054       12.3538723985       20.4097178188
  C         4.9243018816       14.0642278902       20.2858537561
  H         2.9499377825        6.4495927046       16.0041870323
  C         3.5677681499        7.9283082454       14.7880709526
  H         3.0172889656        8.6359701872       28.6371140346
  H         2.3564452787        8.5610191642       30.2094989821
  C         3.9791458958        9.9311960596       30.0581668105
  H        -4.6767813468        8.7152720107       26.5603439905
  H        -4.8046851892        8.7629898928       28.3521257552
  C        -6.1346146601       10.0642099481       27.2464525004
  N        -1.2790913106       16.3355533596       30.6615390104
  C        -1.8107442864       16.0462224944       32.9231759619
  C        -2.1806758673       13.8075846916       33.9425435400
  H        -1.9163868752       12.1440711966       32.5536695327
  H         4.7178521136       14.0244933593       19.2484055592
  H         4.1979630819       13.5161660947       20.8420712732
  H         4.8907420438       15.1023688075       20.4426856465
  S         3.7926238505        9.5646622329       14.3357214049
  C         3.6918382815        6.9616971860       13.6613683360
  H         4.2032723263       10.8463773853       29.4732564703
  H         3.7255854616       10.3006153803       31.0919017936
  C         5.2080991418        8.9475629983       29.9853497304
  H        -6.3471833045       10.7372743612       28.0667408716
  H        -6.8478763730        9.3028171509       27.4097773101
  C        -6.2872486450       10.6509431222       25.8457382352
  S        -1.3009044589       17.8191549025       31.2378171790
  N        -1.7860886833       17.4509322630       32.7736360673
  C        -2.1400421634       15.3158518454       34.1201076621
  H        -2.4126397038       13.1345834209       34.7958680542
  C         3.9790821850        8.9756208317       12.7033493793
  N         3.9307732507        7.6410260933       12.5015585087
  O         3.4635059340        5.7893467188       13.7924645976
  H         6.0985575127        9.4327624821       30.3822536927
  H         5.4215735563        8.7205565698       28.9046246164
  C         5.0495611093        7.5977179828       30.7479820408
  H        -5.7863557085       11.5757999551       25.7044197854
  H        -5.7767142060       10.0925471089       25.1030703551
  C        -7.6202047050       10.8474136439       25.4070873674
  C        -2.4327459742       16.0263974100       35.3563643268
  S         4.2852864895        9.8886600367       11.2394962676
  C         3.8385734924        6.9336036917       11.2479163924
  H         4.6013921927        7.6932723256       31.7333570896
  H         4.3488397201        6.9752848563       30.2075085529
  C         6.3557059441        6.8454573228       30.8149728998
  H        -7.4889180296       11.2125668361       24.3894820268
  H        -7.9256899551       11.6245304965       26.0643457486
  C        -8.5114087932        9.6608007180       25.4593426082
  H        -2.1549641236       17.0580270906       35.3136886333
  C        -2.8818362788       15.6833574156       36.5937070888
  H         4.5992084885        7.2779952856       10.5295001893
  H         4.1372134372        5.8670536816       11.4033682260
  C         2.4425521551        6.9236480848       10.6863171297
  H         7.0433656110        7.6119240146       31.1646873247
  H         6.6521544842        6.5640786748       29.7710631031
  C         6.3276505961        5.5690084830       31.6306132788
  H        -8.8204216260        9.4820969397       24.4134370000
  H        -7.9132270858        8.7689199758       25.7470533733
  C        -9.6420848805        9.9243315287       26.4649394753
  S        -3.4329801383       14.1349619779       37.1245917812
  C        -2.9900565055       16.7079294370       37.6936282736
  H         2.4330825738        6.4069197921        9.6964099249
  H         1.8136471766        6.4294203923       11.3489809582
  H         2.1245029263        8.0158348426       10.6170416805
  H         5.6909321489        5.6465634347       32.4499146227
  H         7.2942798860        5.4676723947       32.1092806067
  H         6.1372746768        4.6395329968       31.1356360335
  H       -10.1701792099        9.0272340866       26.5558173857
  H       -10.4223322255       10.5698094427       26.1949738265
  H        -9.3129694526       10.2945461409       27.4401162458
  C        -3.6817666846       14.8815880223       38.7540027356
  N        -3.4781378544       16.2066496070       38.7766532576
  O        -2.6091866717       17.8732773644       37.6462246979
  S        -4.5458833165       14.2069502263       40.2200185166
  C        -3.6154744982       17.0659495065       39.9750921946
  H        -3.6503661518       18.1384681247       39.7632157018
  H        -4.5412070236       16.8220624270       40.4507704546
  C        -2.3831453221       16.9259602435       40.8265097829
  H        -1.6616372420       16.3707659141       40.2240793779
  H        -1.9765938063       17.9074608587       41.0293413153
  H        -2.5493003247       16.4172400376       41.8365402205
