352
 i =    18800, time =    18800.000, E =        25.3364990189
  H        11.2583070299        7.8069886421       31.7892305548
  C        11.0455942200        6.7761267649       31.7223959704
  H        11.9613431060        6.4389789484       31.2293304409
  C         9.7633292142        6.4446791849       30.9532840498
  C        11.0815777896        6.0067799276       33.0439719501
  C         9.8239555091        6.6450566722       29.4027836611
  H         9.4441529083        5.4009169233       31.1964450740
  H         8.9176265135        7.0352987132       31.2763513032
  H        10.0865442132        6.1160307243       33.5058115497
  H        11.2864923939        4.9176916288       32.8990002831
  H        11.8109457337        6.4743486892       33.6669975075
  C        10.8440875179        5.6769369299       28.8185209945
  H        10.0976951684        7.6759706341       29.2128622772
  H         8.8595099173        6.5621085917       28.8854534632
  C        10.9071882302        5.6328942202       27.2773942090
  H        11.8171102158        5.6463838969       29.2068224315
  H        10.3850821615        4.6951022764       29.1708835908
  C         9.8333253111        5.0295761053       26.3623153126
  H        11.8906330088        5.2432786552       27.0135109942
  H        10.9119536990        6.6663030125       27.0278623758
  C         8.6447804283        5.9803244361       26.0696372803
  H        10.1805212393        4.8259323280       25.4123643337
  H         9.6406796540        4.1110459736       26.8550402002
  C         7.4435253168        5.2124382294       25.3934268311
  H         8.1599346094        6.4189053227       26.9263932526
  H         8.9566497398        6.8037350864       25.4632236107
  C         7.1108168196        3.8811131462       26.0969467127
  C         7.7969955608        4.5248929431       24.1146202026
  C         6.2679135779        6.1498065430       25.2378927401
  C         7.2897342377        2.8025385798       25.2622447315
  C         6.5781032383        3.5324711272       27.2989322192
  C         7.8355668098        3.1721640932       24.0194623401
  C         8.1964900369        5.2445894265       22.9926685925
  H         6.5095891179        7.0394094092       24.7092412484
  H         5.9958782550        6.4637168992       26.2109383235
  C         5.0011176967        5.4819375595       24.5673856950
  S         6.7302832871        1.3704736500       25.9617542415
  C         6.3548545806        2.1902422693       27.4252555124
  H         6.4402093877        4.3285653904       28.0253204415
  C         8.2427124577        2.5386302964       22.8462873272
  H         8.1739442232        6.3094226764       23.2561907141
  C         8.5688954265        4.6520161693       21.8235010976
  H         5.2728651436        5.0291127111       23.6248900818
  H         4.7264076157        4.6080307643       25.1093349202
  C         3.7772204621        6.3853770938       24.3305655781
  C         5.9117985233        1.5245244907       28.7110373094
  C         8.6206412379        3.3018644273       21.6978459632
  H         8.1777235606        1.4527538624       22.7820383162
  C         9.0313958115        5.0468381370       20.6160784554
  H         3.1250332471        5.9216268263       23.5905168720
  H         3.9972562074        7.3346562148       23.8074818347
  C         3.1683203754        6.5881626721       25.6917720684
  C         5.9127399205        0.1172315514       28.8684746698
  C         5.3282655811        2.3170406141       29.7966706491
  C         8.9987992457        2.6381286952       20.4664119257
  C         9.1827180410        3.9315036012       19.7802065536
  S         9.3727737508        6.5449362533       19.8804226564
  H         2.6346023073        7.4925820115       25.6099052518
  H         3.8625825052        6.7252701659       26.5787518275
  C         2.2394810619        5.4060085033       26.0449336687
  N         6.3172121109       -0.8438288448       27.8782603038
  C         5.4938846320       -0.4745829939       30.0661620669
  C         4.9780927901        1.7396924287       31.0153619027
  H         5.1145739547        3.3580523232       29.5342868368
  C         7.8041645323        1.8426037498       19.8821760646
  C        10.2634346226        1.7394215280       20.6186266375
  C         9.5362890118        4.2495219795       18.4599867122
  C         9.7556615113        5.5752276438       18.4002958769
  H         1.6401880188        5.0943863674       25.1628478960
  H         2.8905768154        4.5475885337       26.3935205964
  C         1.4563425870        5.6501927894       27.3115777051
  S         6.1190843752       -2.2774889642       28.5515302782
  N         5.7805539610       -1.8409284051       30.0945554858
  C         5.1950913736        0.2541473934       31.2427100989
  H         4.3976765507        2.4249737617       31.7259559652
  H         7.4932721850        1.0127113551       20.4744264004
  H         8.2274677523        1.4097049734       18.9418165533
  C         6.5345780422        2.6472739375       19.3652019763
  H        10.4522888842        1.2137407050       19.6628593827
  H        10.1225129289        1.0146017787       21.3791801577
  C        11.5341964783        2.5241369473       20.9630702795
  H         9.8053450390        3.4447887170       17.7668311691
  C        10.1327085802        6.2291194000       17.0775420958
  H         0.8392309388        4.8241087106       27.4880003023
  H         0.8828786073        6.5325662817       27.0275672483
  C         2.2607272717        5.9223498903       28.5791731659
  C         4.8485376231       -0.3960040585       32.4769742317
  H         6.7974588580        3.3826663993       18.5896707164
  H         6.1646228221        3.1144633122       20.2459235541
  C         5.4661319843        1.7974131350       18.7085036059
  H        11.4830940038        2.8814300196       21.9441540997
  H        11.6534538863        3.2845167847       20.2424613311
  C        12.7961964913        1.6044221028       20.9221425265
  C        10.1531413444        7.6164130408       16.8101501581
  C        10.3014386550        5.3191684627       15.8499326273
  H         3.1245483971        5.3178833319       28.6301422061
  H         2.5939997709        6.9953442067       28.5181791703
  C         1.5073702520        5.8959022748       29.9454660033
  H         4.9831755662       -1.4436885116       32.5266655952
  C         4.6477372124        0.0939231498       33.7755881070
  H         5.2238983619        0.9847090102       19.3650644799
  H         5.8822792623        1.4737564659       17.7918731004
  C         4.2291987615        2.6060740535       18.3977556823
  H        12.7979032053        0.8002452093       21.6647218154
  H        12.8230527718        1.1243527152       19.9472494900
  C        14.1375809844        2.4053794295       20.9661152478
  N        10.1750028701        8.6030966223       17.8206311715
  C        10.3731626729        8.1748029766       15.5585946782
  C        10.5496261393        5.9195425442       14.6252551188
  H        10.2915598843        4.2331888067       15.9907694827
  H         0.8514320353        6.8179298594       29.9111632781
  H         0.9215825627        4.9516469408       29.9857585568
  H         2.1615910000        6.1630242014       30.8588795843
  S         4.6753942442        1.7083991429       34.4166711301
  C         4.4641310345       -0.9304178012       34.8530404322
  H         4.1823720931        3.4959211158       19.0873266361
  H         4.3897323524        2.9966350628       17.4719831641
  C         2.9843707417        1.6739110126       18.4887194637
  H        14.2767936670        2.9363423098       20.0080330274
  H        14.9956177940        1.7314902981       20.9466427339
  C        14.2898574792        3.3507647144       22.2353656286
  S        10.2425670370       10.0875618262       17.0421550021
  N        10.3868918516        9.6185631373       15.5104799437
  C        10.6873316267        7.3885701892       14.4320541303
  H        10.6996743164        5.2027113100       13.8103041169
  C         4.3856133193        0.9509402528       35.9303192361
  N         4.2337169419       -0.3844714461       36.0298704937
  O         4.3811996691       -2.1565744655       34.6183730077
  H         2.1562961249        2.3118210317       18.0973531907
  H         2.8665788375        1.4704892765       19.5989545492
  C         3.0817650241        0.4121429316       17.5868971384
  H        14.7955060125        4.2857590633       22.0053860784
  H        13.2843492339        3.6737685385       22.5909090127
  C        15.0031134744        2.5345921527       23.3461310390
  C        10.9688369036        8.0670294956       13.1978087171
  S         3.8416888142        1.7641476230       37.3819617946
  C         4.1858969055       -1.1156776806       37.3221859428
  H         2.7340704406        0.5938722036       16.5986065670
  H         4.0816066244        0.0614486008       17.3657222648
  C         2.2717241175       -0.6296283751       18.2664991957
  H        14.8389051622        1.4366990883       23.1226934499
  H        14.5574089788        2.5957906656       24.3119070353
  C        16.4795258331        2.8818533344       23.6004488996
  H        10.7624326491        9.0848764755       13.1438780965
  C        11.4755908812        7.5582345831       12.0129453318
  H         3.4821749495       -0.7654084130       38.0634292528
  H         3.9107973601       -2.1185193328       37.1218746134
  C         5.5820832578       -1.2450725935       38.0228376716
  H         1.2804481438       -0.3645002706       18.5367880234
  H         2.6992693737       -0.7828070370       19.2655828386
  C         2.2704044635       -1.9190178674       17.4450074986
  H        16.5480123168        3.9048121152       23.8915010258
  H        16.9168656619        2.1972937058       24.3146462750
  C        17.3483126730        2.7381348629       22.3100975721
  S        11.9791212312        5.9876977020       11.6997976611
  C        11.6598293243        8.5542721836       10.9247977588
  H         5.8831565882       -2.2754708730       38.2809041203
  H         6.3331222556       -1.0007698435       37.2893528572
  H         5.5892366873       -0.6482989625       38.8529926182
  H         1.6011157189       -2.6711418086       17.7146790380
  H         3.2657619553       -2.4168007191       17.4364940705
  H         2.2038898337       -1.7384441227       16.3886250738
  H        18.3813965279        2.8176201420       22.4748645606
  H        17.1414948923        3.5297715548       21.5597181250
  H        17.1862654313        1.7782211931       21.8710566554
  C        12.5410083447        6.6515372490       10.0838906218
  N        12.2191964267        7.9365306602        9.8761917689
  O        11.3546099576        9.7466110175       10.9981473837
  S        13.3353667336        5.7671585110        8.8221206343
  C        12.5008175288        8.5559149390        8.5342867479
  H        13.5862188145        8.5503557554        8.4596483298
  H        12.1972967372        7.9104731145        7.7495378622
  C        12.0414809772        9.9610437044        8.1975779915
  H        12.4121065198       10.6126537294        8.9591861168
  H        12.2845021494       10.2772031776        7.1610157756
  H        10.9393072404       10.0380502753        8.3342500144
  H        -3.8583818686       14.7200116239       16.1371823130
  C        -3.3841935180       13.7759757603       16.2832890520
  H        -4.1930750333       13.0731899351       16.5236444098
  C        -2.1990443233       13.8198761522       17.3589766496
  C        -2.9559436407       13.4218707428       14.8951649197
  C        -2.6842748163       13.5101457459       18.8600332170
  H        -1.4104385930       13.1479776363       17.0070565762
  H        -1.8353358428       14.8456327055       17.3583672387
  H        -3.7354338906       13.1567606542       14.1876472322
  H        -2.3433210920       14.1341559706       14.3641063963
  H        -2.4923406655       12.4204435341       14.9423359164
  C        -1.6016074135       13.7569440748       19.8435701893
  H        -2.9685225894       12.5480069146       19.1027032496
  H        -3.5705325422       14.1582124484       19.0496380372
  C        -2.2719416680       13.7371057421       21.2466233741
  H        -1.0260648217       12.8402591333       19.8531074977
  H        -1.0158067878       14.5815634600       19.6713325685
  C        -1.3488323725       13.0434465584       22.3268087302
  H        -3.3335870418       13.2938494470       21.2108917774
  H        -2.4249503517       14.7930995961       21.4558894653
  C        -0.0951061648       13.9214377177       22.4534033032
  H        -1.8108867210       12.9830899111       23.3481254073
  H        -1.1246298567       12.0365790314       22.0786921999
  C         1.1342150414       13.2927685910       23.2685568643
  H         0.2203747350       14.2432061173       21.4674740956
  H        -0.3095096255       14.8146702874       23.0103143185
  C         1.5244063950       11.9146937297       22.6954460001
  C         0.7001286635       12.6330919022       24.5224848918
  C         2.4041104314       14.1833284310       23.5199269540
  C         1.2517661608       10.8469467601       23.5313528210
  C         2.0837810770       11.4663485439       21.4762544456
  C         0.7110057495       11.2641362849       24.6872691966
  C         0.2794694798       13.2581450217       25.7030533290
  H         2.7867746969       14.5718390814       22.5694864974
  H         2.3378054870       15.0056495785       24.2239231481
  C         3.6405868707       13.3979525733       24.1374063982
  S         1.7531080964        9.3029969599       22.8946071989
  C         2.2247489670       10.1152609764       21.4381758955
  H         2.4076348006       12.1420748105       20.7731472878
  C         0.2434856337       10.6703212895       25.7933910486
  H         0.2252155620       14.3684567332       25.5805244259
  C        -0.1129540415       12.6820723417       26.8694570105
  H         3.7486014408       12.4346152337       23.5944378176
  H         3.3499979083       13.0611323466       25.1343201762
  C         5.0240686044       13.9713059008       24.2100204306
  C         2.6332841157        9.4334567908       20.1851734330
  C        -0.1249546714       11.2875057392       26.9516260458
  H         0.1279717630        9.5970612089       25.7798974478
  C        -0.6091622208       13.0937741735       28.1112029385
  H         5.6687578516       13.3152288860       24.8213469283
  H         5.0013125282       14.8171059570       24.8351383293
  C         5.6173331413       14.1264022849       22.8241229366
  C         2.5901769070        8.0826952788       20.0108199475
  C         2.8190817797       10.2216077928       19.0210943183
  C        -0.6441098860       10.6012939515       28.1214998579
  C        -0.8221934156       11.9610033714       28.8100050230
  S        -0.8357340805       14.5735505340       28.9790372678
  H         6.0946974004       15.0623865396       22.6699342901
  H         4.7451941046       14.2314408431       22.0823326506
  C         6.5103458739       13.0061840460       22.2796475561
  N         2.3153595027        7.1744109487       21.0080413305
  C         2.7950323068        7.5063418909       18.7506167436
  C         3.1114319845        9.6927520027       17.7742953738
  H         2.8009026252       11.3168479027       19.0162907280
  C         0.4758918131        9.8407592279       28.8437252067
  C        -1.9854593524        9.8068495755       27.8289451492
  C        -1.3152939371       12.2876105414       30.0887508070
  C        -1.2747897970       13.6379341242       30.3699391665
  H         7.2790071823       12.6139462945       23.0187405765
  H         5.8725641814       12.1232173738       22.0967640626
  C         7.2358124890       13.3534978514       20.9939123766
  S         2.0977990190        5.6726140600       20.2560595947
  N         2.6035205823        6.1006431026       18.7854705600
  C         3.0585131491        8.2120928515       17.5848619895
  H         3.3012821401       10.3901220049       16.9306066068
  H         0.9783030943        9.1375690914       28.1278327017
  H        -0.0590555647        9.2293861439       29.6800796212
  C         1.6739560233       10.6228847438       29.4481362281
  H        -1.8812123074        8.9825648925       27.1267384066
  H        -2.3271834818        9.2905881251       28.6791646719
  C        -3.1909650131       10.6263409561       27.4436894000
  H        -1.5972148300       11.4784759406       30.6964650068
  C        -1.6239832303       14.3282728493       31.6859189080
  H         7.9538147783       12.6117482916       20.6653116259
  H         7.9903204856       14.1838919631       21.1358145680
  C         6.2793227680       13.7026736143       19.9124883108
  C         3.2429154017        7.5010466174       16.3629395519
  H         2.2032898571       11.2679776898       28.7283552580
  H         1.3708335264       11.3333061961       30.3236511800
  C         2.6159293635        9.6382835092       30.1686479337
  H        -2.9680182428       11.1365962468       26.4927519087
  H        -3.4348506355       11.3585800758       28.2643411318
  C        -4.4783256244        9.8466380661       27.3439267680
  C        -1.6698102990       15.7262937272       31.9347892742
  C        -1.8281799369       13.5197981251       32.8925889785
  H         5.5034317050       12.9350867808       19.8282788936
  H         5.8647434519       14.6648736308       20.0814682831
  C         7.0243475392       13.7715168945       18.6097772141
  H         3.2046635967        6.4643542359       16.4845766826
  C         3.4960709311        7.8883924704       15.0570538722
  H         3.1251420934        8.8630552724       29.4667782210
  H         2.0799901396        9.0706554863       30.8607597798
  C         3.7217292627       10.3466744610       30.8561550459
  H        -4.3430579673        9.0109384853       26.7211189965
  H        -4.6715050655        9.4303377777       28.3725060934
  C        -5.6841867288       10.7035234445       26.8552587348
  N        -1.5900341944       16.7257129397       31.0490319089
  C        -2.0850778088       16.2418037903       33.1403002605
  C        -2.1783389721       14.0206736400       34.1227410137
  H        -1.6316323132       12.4409641247       32.7928947510
  H         7.6542906556       12.8632776154       18.4745553651
  H         6.1946790074       13.8489379003       17.9036683964
  H         7.6584469673       14.7104795727       18.6774786110
  S         3.7405318876        9.5135175733       14.5480237000
  C         3.4608725971        6.7926803273       14.0458596657
  H         3.6939176286       11.4001217548       30.5188225613
  H         3.4069985668       10.5051105016       31.9216619079
  C         5.1426262359        9.8501639118       30.5928597961
  H        -5.7412974408       10.9501060472       25.7382627760
  H        -5.5671285988       11.6619212637       27.3498762461
  C        -6.9770622081       10.1019317257       27.4628576078
  S        -1.9339262350       18.1486766185       31.7100912772
  N        -2.3673275428       17.5924038570       33.1374146633
  C        -2.2263726041       15.4963598109       34.3169175969
  H        -2.3944706824       13.4637254250       35.0509252953
  C         4.0530997249        8.7055133496       12.9248141343
  N         3.9211320603        7.3457504549       12.9112231110
  O         3.2091556773        5.6261276080       14.2465413273
  H         5.7671667570       10.6778571201       30.8586383157
  H         5.2350653327        9.6336614823       29.5594150600
  C         5.4712714930        8.5373777422       31.3113621739
  H        -7.0028090592        9.0506498898       27.1984210764
  H        -6.9265447650       10.2543712976       28.4944150852
  C        -8.1747111895       10.8883277913       26.9669708005
  C        -2.6743679651       16.1819509166       35.4703273930
  S         4.4611902997        9.5736227830       11.4429871048
  C         4.0305431384        6.5823074976       11.6454321232
  H         6.3461987311        8.7247316246       31.8953010836
  H         4.6281108042        8.2539681808       31.9785696674
  C         5.8030212931        7.3870864414       30.3905154636
  H        -7.8744518542       11.7765567628       26.3176054664
  H        -8.7297503298       11.3135683376       27.7964097303
  C        -9.1027213387        9.9922931285       26.1484699482
  H        -2.2651363415       17.2329247282       35.4094564353
  C        -3.3391125643       15.9517626127       36.6476728457
  H         4.7889524772        7.0421737997       11.0424523541
  H         4.4269242128        5.6234742518       11.8042271676
  C         2.5972432378        6.5184276189       10.9402684857
  H         6.5989862350        7.5888369205       29.6611809978
  H         4.8390895374        7.2312950728       29.8098304664
  C         5.9500678992        5.9952284015       31.0369753702
  H        -9.2225007834        9.0104793191       26.6080719376
  H       -10.1494260429       10.4536601994       26.1284921476
  C        -8.6495731792        9.7136487127       24.7257488326
  S        -3.9386550847       14.4582925424       37.2191767335
  C        -3.3970999601       17.0815486767       37.6021254210
  H         2.5606797478        5.8551125438       10.0920356515
  H         1.9330932004        6.0283008346       11.6585638843
  H         2.2530929682        7.5104728137       10.6303788746
  H         6.4074866328        5.4010441056       30.2699658042
  H         5.0704854502        5.4490817567       31.2743679327
  H         6.4367150914        5.8830826821       32.0041796944
  H        -7.7383317443        9.2494107865       24.7908538095
  H        -8.3442256248       10.5133873372       24.0877924783
  H        -9.2683577612        9.0191207032       24.0772986525
  C        -4.3345804907       15.3292154891       38.6573283080
  N        -4.0433315079       16.6937845997       38.6924081329
  O        -2.9744235945       18.2235335082       37.3427272757
  S        -4.8346296851       14.5599189564       40.1654010396
  C        -4.1965889696       17.6099334207       39.7851381917
  H        -4.4668336162       18.6588261805       39.4465066126
  H        -4.9425212539       17.4361453506       40.5546932728
  C        -2.8393248552       17.7061942324       40.4754930468
  H        -2.4310975446       16.8025931528       40.8163658430
  H        -2.0689527156       18.1199295183       39.8058218211
  H        -2.8783514320       18.3635394561       41.3035622887
