352
 i =    57400, time =    57400.000, E =        25.0783479713
  H        10.1835864130        4.3656421064       31.8188636541
  C        10.6464916753        5.3047576464       32.2092691370
  H         9.8403332615        5.5873668649       32.8823199746
  C        10.8795326413        6.2474677209       31.0882479419
  C        11.9288059439        5.1392387494       33.0001064251
  C        11.3449392526        5.6772752177       29.7342056061
  H         9.9545495961        6.7895242786       30.8852457557
  H        11.5344629307        7.0260230314       31.3821194093
  H        12.7842540644        4.9079279600       32.2887300257
  H        12.1074551985        6.0507298180       33.6608938799
  H        11.9088768563        4.3762361411       33.7634010663
  C        10.2445383947        5.5556981779       28.6763561720
  H        11.8261830100        4.6782835144       29.7843225925
  H        12.1032967692        6.3382588523       29.3622501206
  C        10.7775460555        5.4543445196       27.2890265091
  H         9.4805140419        4.7612030504       28.8737310756
  H         9.7681186148        6.5413888774       28.7223219639
  C         9.7426313590        5.0577047219       26.2335540543
  H        11.5605925664        4.6993313971       27.3314520728
  H        11.3289336091        6.3736250461       27.0421070350
  C         8.5321699448        5.9049149319       25.8782468385
  H        10.3765730141        4.9397408313       25.3195453401
  H         9.4865137230        4.0735166649       26.5337256397
  C         7.3728507025        5.1059971226       25.2147171610
  H         8.2124280250        6.5544220581       26.6776591056
  H         8.8988141944        6.5349749680       25.1462976315
  C         7.0563777031        3.7833315365       25.9177596575
  C         7.9270034146        4.3720106972       24.0598259638
  C         6.1754894274        5.9301134510       24.8198192025
  C         7.3144210650        2.6262017245       25.1398766188
  C         6.6593119684        3.3443665142       27.2210988972
  C         7.9261649907        3.0312808643       23.9467113822
  C         8.4099096743        5.1007263850       22.9345050142
  H         5.7540516567        5.4842306017       23.9654770927
  H         6.3775717293        6.9919882206       24.5857085067
  C         5.0960118117        5.9334327377       25.9186240859
  S         6.6045592379        1.1880910126       25.8285023925
  C         6.4574895052        1.9724489982       27.3632911583
  H         6.5049007887        4.1483617619       27.9825163365
  C         8.2335125902        2.4292230318       22.7782659803
  H         8.2655118108        6.2195675215       22.9612219077
  C         8.7647566071        4.4827825408       21.7829808584
  H         4.9409596087        4.9553258982       26.3128443422
  H         5.3752753676        6.5608573117       26.6974043472
  C         3.7893232433        6.4540243040       25.3137865510
  C         5.9817822591        1.2778334831       28.5815789630
  C         8.7440909509        3.1352788684       21.6990158756
  H         7.9182016705        1.4186057385       22.5029702715
  C         9.2323048457        4.9002092588       20.5146945346
  H         3.4039549957        5.6784794966       24.7285009821
  H         3.9099929789        7.2774447625       24.5844586040
  C         2.6228390476        6.7221798219       26.2838569835
  C         5.9729882482       -0.0832935457       28.8655204909
  C         5.5929114388        2.1029325889       29.7181235122
  C         9.0769903499        2.4323420941       20.4135545399
  C         9.3711271569        3.8296745754       19.6619815960
  S         9.4506728128        6.4253078636       19.7691207205
  H         2.0228496538        7.4859842882       25.7216153182
  H         2.9657623549        7.1715938777       27.2049400142
  C         1.8519327879        5.4432772493       26.6467150711
  N         6.4129090715       -0.9740468909       27.8962092068
  C         5.7416235543       -0.5602302716       30.1300267952
  C         5.2042068559        1.5772029559       30.8726664643
  H         5.7629013055        3.1732791119       29.6443936437
  C         7.9694369767        1.6813977565       19.5875845173
  C        10.2813638707        1.5338831296       20.5768155158
  C         9.8027456131        4.2561022035       18.3689700240
  C         9.8575247297        5.6247623924       18.2605354960
  H         0.9987232477        5.4274350643       26.0146219384
  H         2.4570754111        4.5132023922       26.4198641090
  C         1.5321100913        5.4216998134       28.1646549842
  S         6.3415827473       -2.4546248538       28.6201419246
  N         5.8009222846       -1.9519951472       30.1090068190
  C         5.3063983098        0.1690261105       31.2077751651
  H         4.9542052023        2.2768303382       31.6831226043
  H         7.7617674344        0.7629927911       20.2216798483
  H         8.3860542200        1.4018512736       18.6219682580
  C         6.7881095969        2.5068873013       19.1733902697
  H        10.5186501995        0.9375100152       19.7235941983
  H        10.0767136163        0.7883917695       21.3715130962
  C        11.5239451974        2.2478988916       21.0422781080
  H         9.8609689323        3.4526666347       17.6193134689
  C        10.0882774809        6.3486440015       16.9928700384
  H         0.8276968414        4.5788722312       28.1292048256
  H         0.9443704777        6.2641917820       28.5981539848
  C         2.7374308930        5.0767589668       28.9795153663
  C         5.1496753445       -0.4128833455       32.5092913476
  H         6.9862088714        3.3559679133       18.5325102587
  H         6.4805294363        3.0567367956       20.1210869277
  C         5.6016173190        1.7017475262       18.5049026764
  H        11.2266136589        2.6880223619       22.0666878671
  H        11.8577282091        2.9918587671       20.3175924953
  C        12.5642971583        1.1933715305       21.3767594624
  C        10.2254679257        7.7550837163       16.7949756271
  C        10.4736280468        5.5258611086       15.7834813947
  H         3.0873629223        4.0793547639       28.6892704298
  H         3.5807026232        5.8124413196       28.7426443562
  C         2.3783591706        5.1121654725       30.4644231452
  H         5.2574608429       -1.4800636666       32.5949540464
  C         4.7645737770        0.1183481641       33.7683539447
  H         5.6024716918        0.7023988079       19.0019295981
  H         5.8058188653        1.6168872315       17.4153288254
  C         4.1515654103        2.1638570469       18.7781990967
  H        12.1924554641        0.6203736909       22.3163273345
  H        12.5747140259        0.4205057165       20.5604219653
  C        13.9972136638        1.6116583423       21.6873354993
  N        10.0021691696        8.7737361450       17.7223504925
  C        10.4684471048        8.3119482494       15.5713038703
  C        10.6822554282        6.1321086234       14.5419415512
  H        10.3897275650        4.4809610038       15.8606460432
  H         1.5766019077        4.3674125086       30.7688034168
  H         3.2566621272        4.8701867679       31.0073097449
  H         2.1293992776        6.1312957901       30.7016685160
  S         4.4520460955        1.7532904390       34.1505879704
  C         4.6712158933       -0.7780176378       34.9375747693
  H         4.0951150515        2.6781945554       19.6793412280
  H         3.8135604321        2.9854685399       18.1334544441
  C         3.0746672265        0.9889799297       18.8399700556
  H        14.2818623741        2.3926982986       21.0360959513
  H        14.7192416813        0.8011521322       21.4579183149
  C        14.0522934083        2.4041231512       23.0399073827
  S        10.0659423391       10.2851036083       17.1006261492
  N        10.5060748506        9.7268118968       15.6007750938
  C        10.6225756064        7.5961321805       14.3819396989
  H        10.7020584208        5.4993346724       13.6714139635
  C         4.1808124782        1.2009008224       35.8041248224
  N         4.2676175058       -0.1273798832       35.9970817296
  O         4.7011611495       -1.9826207852       34.9109023828
  H         2.1504476352        1.4527576715       19.2250713819
  H         3.5034956298        0.2464458336       19.4944422589
  C         2.7657200563        0.3356103028       17.5553605372
  H        13.3798660893        3.2780709256       23.0923503613
  H        13.7629110679        1.7650002353       23.8435582040
  C        15.5134519387        2.8477303659       23.4092979399
  C        10.8902602405        8.2149752935       13.1855030591
  S         3.7219634838        2.2745837313       37.1520544790
  C         4.1274152957       -0.7457540930       37.3572884137
  H         1.9292205195        0.9537413137       17.0268167837
  H         3.6617510204        0.1912452322       16.8987217179
  C         1.9380811980       -0.9470212225       17.9214986250
  H        15.6428178683        2.5500503613       24.4238469435
  H        15.5105692065        3.9587646048       23.4677154046
  C        16.6562756362        2.3346723475       22.4800962770
  H        10.7104059060        9.2524252308       13.1605774929
  C        11.6368710096        7.8355870357       12.1271719902
  H         3.4894353131       -0.2082573758       38.0592336968
  H         3.4602820224       -1.6264535862       37.2369103262
  C         5.4606911222       -1.1092335980       38.0994246942
  H         0.9535718500       -0.6418900475       18.3575623271
  H         2.4493889584       -1.4556954790       18.7459676720
  C         1.8903706937       -1.7581578368       16.6570771303
  H        16.5486089582        1.2632385743       22.4818731181
  H        16.4673417268        2.6580651512       21.4109294571
  C        18.0735610769        2.5233927497       22.9209980273
  S        12.2444501611        6.2784874580       11.7657042953
  C        11.8161773397        8.8278413937       11.0277325226
  H         6.1914648128       -1.4780523324       37.3763969667
  H         5.8108472607       -0.1607922985       38.4763983675
  H         5.4320408545       -1.8550924980       38.8566369077
  H         2.8075748945       -2.2821985351       16.3870696847
  H         1.4839785642       -1.2821771881       15.8061217689
  H         1.1874643233       -2.5548389960       16.8588109156
  H        18.5904750512        3.4080868855       22.6031390598
  H        18.6489647563        1.7332506860       22.4703507268
  H        18.3477252187        2.4232114845       24.0187255568
  C        12.7535043365        6.9298789060       10.2318782546
  N        12.5437169424        8.2025092736       10.0287130939
  O        11.3924551258        9.9767862145       11.0913146660
  S        13.5501104054        6.0270109745        8.9877273208
  C        12.7123567024        8.9149078733        8.7674922280
  H        12.7290463595        9.9419882868        8.8972507715
  H        13.7059740022        8.7454556891        8.3650124209
  C        11.5317326734        8.6704040323        7.8021356095
  H        11.4963833431        9.3971987606        7.0228381525
  H        11.5955251946        7.6753012944        7.4060431997
  H        10.6421528146        8.6850736402        8.3286381143
  H        -3.9712123004       12.3311105865       16.7488589091
  C        -2.9147593639       12.7121017012       16.7103097915
  H        -2.1906960405       11.8961415808       16.6664645724
  C        -2.8290877966       13.7719745542       17.7843929212
  C        -2.7677606102       13.4386170020       15.3467729881
  C        -3.2612439708       13.1209423144       19.0761965461
  H        -1.8075111222       14.3051808960       17.8151623921
  H        -3.5188503285       14.5660584870       17.5027084829
  H        -2.0285333998       14.2744221307       15.4356153166
  H        -2.4585132393       12.7525463505       14.5103044968
  H        -3.8302304997       13.7776722066       15.0905296647
  C        -1.9723269319       12.9898000647       20.0737769795
  H        -3.8276240284       12.2187995229       18.8480757999
  H        -4.0203668133       13.8322768965       19.5606300303
  C        -2.3592140019       13.0421837260       21.5430844065
  H        -1.4783374326       12.0322808235       19.6857577285
  H        -1.1536281710       13.6934573434       19.9410305636
  C        -1.3142296794       12.4213661119       22.4004196327
  H        -3.4082977108       12.5687324752       21.6383184108
  H        -2.5278873004       14.0490505217       21.8358211335
  C        -0.1218615749       13.3748099590       22.6121926963
  H        -1.6951419635       12.1167308730       23.4050331769
  H        -1.0138353908       11.4447307519       21.8884198510
  C         1.0857333728       12.7956641711       23.3558327054
  H         0.2638109378       13.7561480533       21.7024504445
  H        -0.4726215663       14.2650547381       23.1844648045
  C         1.5052392230       11.4696103831       22.6863507748
  C         0.7950668788       12.0411956803       24.5989780295
  C         2.2840292998       13.7683683881       23.4931312485
  C         1.3044403368       10.3345113356       23.4521287418
  C         1.8737591472       11.1261460115       21.3929825156
  C         0.8164865885       10.6622665779       24.7005334292
  C         0.2572103421       12.6670832269       25.7112902322
  H         2.3280729793       14.2043348110       22.4605314436
  H         2.0976644868       14.5114196904       24.2007718411
  C         3.5810474036       13.0609391532       23.8800474938
  S         1.8526787052        8.8613394272       22.6329559555
  C         2.0738601392        9.7623634704       21.2252063059
  H         1.9098421214       11.9694330179       20.6756938802
  C         0.4773131435       10.0400341638       25.8755636290
  H         0.1139376618       13.6854423109       25.5997039067
  C         0.0359263140       12.0704286385       26.9369847507
  H         3.7769455984       12.2708667305       23.1384696450
  H         3.3887488793       12.4591657813       24.7652820090
  C         4.9382597111       13.8221781457       23.9380830373
  C         2.6434676400        9.1719915174       19.9025888493
  C         0.0363499976       10.7094662713       27.0173817025
  H         0.3200465560        8.9623338185       25.9077097078
  C        -0.4745247872       12.3907498440       28.1816878604
  H         5.7060841931       13.3942587743       24.5740140482
  H         4.7560083465       14.7171132018       24.5623245911
  C         5.5552963038       14.3095700485       22.6130941166
  C         2.8819134437        7.7952261796       19.6168099839
  C         2.9886051538       10.0970580769       18.7442360664
  C        -0.4396247334        9.9298767554       28.2261643607
  C        -0.6772973207       11.2438620428       28.9372959068
  S        -0.7140483889       13.8654618577       29.0420790088
  H         6.1296918787       15.2666921429       22.7133902288
  H         4.6959366651       14.5208048721       21.9767962265
  C         6.3770000435       13.1247521029       21.9856771622
  N         2.5809202828        6.8308815863       20.5676802608
  C         3.1514585334        7.3108108595       18.3977980605
  C         3.3493948246        9.5534781932       17.4569992975
  H         2.9499386314       11.1364232286       18.9067622638
  C         0.6971022930        9.1610752448       28.9540863753
  C        -1.8345768418        9.2193465702       28.0425549223
  C        -1.0643687704       11.6128665118       30.2968158758
  C        -1.1327942262       13.0091976138       30.4670707382
  H         7.2236750972       12.7728452860       22.6816826490
  H         5.7859045969       12.2185160685       21.9018950420
  C         6.9505723273       13.5403753615       20.6270430867
  S         2.6664932456        5.4065291830       19.8207732043
  N         3.1419929978        5.8947924756       18.3620137642
  C         3.3884583804        8.1020145820       17.2396580788
  H         3.4783546205       10.3081377852       16.6092478595
  H         1.0207800673        8.3974932546       28.2718736806
  H         0.1634871164        8.6257776156       29.7055481328
  C         1.8970904672       10.0313739343       29.3886300292
  H        -1.7372498860        8.3345122049       27.4168932942
  H        -2.1958625768        8.8702798214       28.9926624963
  C        -2.9789779679       10.0493718625       27.4445734689
  H        -1.2138058683       10.8937754418       31.0707211383
  C        -1.5705579289       13.7467415491       31.6974364600
  H         7.7314190403       12.7270633949       20.3208868554
  H         7.4899621211       14.4709353291       20.8100120961
  C         5.9863631699       13.6654623982       19.4258123338
  C         3.4599928864        7.3857239097       15.9729763125
  H         2.4381050941       10.3220506673       28.4982378462
  H         1.7698279755       10.9220763113       29.9946732725
  C         3.0405153751        9.2314967534       30.0752338460
  H        -2.5735691054       10.5970638923       26.5713718753
  H        -3.2974289002       10.7728570005       28.2179884922
  C        -4.2062645664        9.2412400496       27.0908401144
  C        -1.7512478530       15.0753630755       31.8558684478
  C        -1.7526394037       12.9341933777       32.9401399927
  H         5.3694968762       12.7845082409       19.3244268942
  H         5.3199290846       14.4795486360       19.6823980399
  C         6.8281276166       14.0729841458       18.2003681886
  H         3.4901288194        6.3384824346       16.0176967380
  C         3.8138114643        7.7737031645       14.7121113989
  H         3.3741380184        8.4511340605       29.3763204285
  H         2.5861773029        8.8529127665       30.9491253715
  C         4.3492746380        9.9747891699       30.4688423290
  H        -3.8340224196        8.4816094284       26.3343386987
  H        -4.5315807006        8.6889654743       27.9466358478
  C        -5.3448091717       10.0810941786       26.4288919678
  N        -1.6245515031       16.0246708611       30.8020227210
  C        -2.0740508433       15.6072061727       33.1278307078
  C        -2.1146239041       13.4472653342       34.1688358017
  H        -1.6032970419       11.8315094072       32.9142817107
  H         6.3364359936       14.5145164441       17.4022393702
  H         7.6392520828       14.7032570291       18.5153785067
  H         7.2352549547       13.1803262258       17.7736393463
  S         4.2615134840        9.4243773012       14.4229129054
  C         3.8730643238        6.8415091570       13.6113160733
  H         4.7253313502       10.6494939894       29.6917315379
  H         4.1507970960       10.4251798022       31.4754586293
  C         5.5463578898        9.0046045052       30.6508341767
  H        -4.8487207807       10.7260706958       25.7194208629
  H        -5.8792458219       10.6815935617       27.2136095626
  C        -6.3987518469        9.2592593343       25.6988564337
  S        -1.8269454713       17.4664145917       31.5156630836
  N        -2.2072125449       16.9936816437       33.0587933006
  C        -2.2281600925       14.8903765826       34.3125239202
  H        -2.4954604869       12.7698449210       34.9646985462
  C         4.2190524922        8.8998549862       12.6774606164
  N         4.2300478695        7.5085217322       12.5358060254
  O         3.5615578292        5.6392989944       13.6700247916
  H         6.3078662191        9.4998112236       31.1813390934
  H         5.8159754703        8.6646272091       29.6320271509
  C         5.1545724891        7.8000255167       31.3691530403
  H        -6.0046613180        8.8628379937       24.8171911486
  H        -6.8386891336        8.3690507000       26.2551244215
  C        -7.6772476215       10.1215147315       25.3280464177
  C        -2.6521300507       15.6006809088       35.4778156341
  S         4.6594818287        9.8390032538       11.2612259110
  C         4.4016718915        6.8741288506       11.2894842458
  H         4.5948367546        7.9792215845       32.2887654841
  H         4.3564382329        7.2177700176       30.9010323332
  C         6.1945490511        6.7306128007       31.7070426251
  H        -7.3501525393       10.8459422439       24.6429826850
  H        -7.9839265554       10.7131576975       26.1710585333
  C        -8.8172383890        9.3249186798       24.6662351409
  H        -2.5116499638       16.6318261247       35.4228956995
  C        -3.1866212673       15.2467637748       36.6815648134
  H         5.2225222180        7.3285922223       10.7642624105
  H         4.6091930414        5.8383625974       11.5198265481
  C         3.0695974473        6.8172992471       10.5452106699
  H         5.6167018238        5.7186960892       31.7819537768
  H         6.6448862612        6.8881110836       32.7025197422
  C         7.2714080888        6.5757170587       30.6371461426
  H        -9.0440354980        9.7206925282       23.6338717871
  H        -8.4432935021        8.3126084472       24.5908616503
  C       -10.0919808979        9.2216218675       25.6122689311
  S        -3.9258911778       13.6894392637       37.0658448129
  C        -3.2732389552       16.2719174600       37.6983742522
  H         3.2502973775        7.0697040572        9.4965025479
  H         2.5475979672        5.8745772873       10.5933306315
  H         2.4303595619        7.5764289961       10.9280956607
  H         6.9040924801        6.3491036535       29.6298949317
  H         7.9424374699        5.8121551126       31.0760480689
  H         7.8860818305        7.4652649036       30.4938495463
  H       -10.8767626671        8.5257275842       25.2117202502
  H       -10.4529892606       10.2117832135       25.9471600750
  H        -9.7131496965        8.6379065244       26.4200120786
  C        -4.3946690245       14.5049602281       38.5767779160
  N        -3.9856949560       15.7981312427       38.7462161217
  O        -2.6374380725       17.3720376570       37.6717512938
  S        -5.1641089246       13.7535270617       39.9374064409
  C        -3.9227139214       16.5659037107       39.9782298649
  H        -4.0788084971       17.6020958570       39.8080848256
  H        -4.8756104706       16.4115541656       40.5359371660
  C        -2.6625861161       16.2481600649       40.8360850405
  H        -2.6788518684       16.4908129803       41.9292524065
  H        -2.2665570258       15.2493303468       40.7366920672
  H        -1.9910182849       17.0529453625       40.4707859812
