352
 i =    80200, time =    80200.000, E =        25.4251456546
  H         9.9393003679        6.9836655699       31.9524557579
  C        10.9391662614        6.6898631870       32.1831857854
  H        11.4381054475        7.5521071158       32.6240158680
  C        11.3872226777        6.2341154737       30.8257201491
  C        10.7994668708        5.6723976091       33.2778106998
  C        10.3874016255        5.5259047210       29.9284205198
  H        11.8784417024        7.0018788933       30.1868960797
  H        12.2481957396        5.5607007291       30.9628908263
  H        10.1738490039        6.1236511782       34.0458425384
  H        10.2810864737        4.7146454706       33.0384905179
  H        11.7446919295        5.4919237838       33.7645808836
  C         9.7620342111        6.5591533785       29.0011677601
  H         9.5666758734        5.0045374867       30.4911646833
  H        10.9956877542        4.7350775194       29.4546142374
  C        10.4430333009        6.5144673485       27.6002431566
  H         8.7291186154        6.2676560064       28.7842117112
  H         9.7402792881        7.4718418749       29.5871020963
  C         9.6061897979        5.6409154691       26.6623356119
  H        11.4439155921        6.1303151444       27.7089670241
  H        10.5372922002        7.4368905184       27.1388465273
  C         8.4257493264        6.3909281246       25.9604306495
  H        10.3452824473        5.3450794692       25.9278820937
  H         9.2881143740        4.7179843405       27.1810688935
  C         7.4104325319        5.4945781306       25.0907155565
  H         7.8308630186        6.9827067473       26.7186979120
  H         8.7690318901        7.1178547120       25.2988551038
  C         7.1702897979        4.1205546759       25.7532086188
  C         8.0718404837        4.8352825038       23.9479480632
  C         6.0631581031        6.2693464836       24.6165730634
  C         7.5370494551        3.0455895562       24.9822966287
  C         6.5638851189        3.7910356957       26.9585901531
  C         8.1113425670        3.4668321527       23.8276606611
  C         8.6115869563        5.5284825881       22.8453028200
  H         5.7013510325        5.6496919369       23.8265866703
  H         6.4712221058        7.2151194880       24.1711532540
  C         4.9833739839        6.3971121733       25.6964957598
  S         7.1756241354        1.5493509261       25.8580720408
  C         6.5190707848        2.4145046666       27.1495193588
  H         6.2891177562        4.6190292489       27.6183028289
  C         8.4766074189        2.9222813595       22.6779928054
  H         8.4778975662        6.6091160144       22.9733380275
  C         8.9402644924        4.9688511613       21.6451930736
  H         4.8893231785        5.4470348828       26.1076415314
  H         5.2094847788        7.1344307742       26.4733773040
  C         3.6294014994        6.8139981106       25.0243937558
  C         6.1315801614        1.6849923640       28.3797316695
  C         8.8784755305        3.6262743650       21.4991031810
  H         8.5285258623        1.8110515562       22.6286590107
  C         9.3269952137        5.3247066204       20.3621198260
  H         3.4172139817        6.1215949442       24.3137635987
  H         3.6897282584        7.8883005679       24.6529587391
  C         2.4344747082        6.9947220900       25.9632549994
  C         6.1223132672        0.2728751533       28.5378240020
  C         5.7546364167        2.5314923180       29.5980024395
  C         9.1488574350        2.8804151888       20.2279337622
  C         9.4776534256        4.2024302428       19.6077076646
  S         9.5566981098        6.8190888803       19.5603633253
  H         1.6493177950        7.1691811847       25.3324972962
  H         2.5659533999        7.9266541695       26.4229701976
  C         2.3366273280        5.7403738422       26.9047314423
  N         6.3898780290       -0.7061226261       27.5176391305
  C         5.9460699866       -0.3390367978       29.7716684809
  C         5.3622126585        1.8909682297       30.8438233406
  H         5.7982948642        3.6091179366       29.5065145559
  C         7.9454392465        2.2128527804       19.6485263066
  C        10.4094871945        1.9641627185       20.3231770094
  C         9.8401694225        4.5817164458       18.3152703972
  C         9.9947788648        5.9420364626       18.1834984535
  H         2.5470470098        4.7537711664       26.4348237117
  H         2.9830378579        5.9507860998       27.7924943966
  C         0.9338404389        5.6672793960       27.4726316663
  S         6.6869920243       -2.1361612521       28.1775512206
  N         6.2207064107       -1.6769141929       29.6998745815
  C         5.4628476450        0.4130662404       30.9016054074
  H         4.8035056721        2.4984102873       31.6249655782
  H         7.7713107042        1.2583820147       20.0969652348
  H         8.3262315926        1.9388910826       18.6156948016
  C         6.5757320668        3.0044900295       19.7394475854
  H        10.6471019040        1.2705686667       19.4056265774
  H        10.2333636658        1.2341068452       21.1497614714
  C        11.6683217691        2.7605296143       20.6587668721
  H         9.9018911622        3.8548137008       17.5494663063
  C        10.2266893465        6.6431332391       16.8980291393
  H         0.2914381715        5.1682280274       26.7554454509
  H         0.6790179983        6.6758660117       27.5303712617
  C         0.8107375318        4.9041890517       28.8020854332
  C         5.2900942196       -0.3055289097       32.1151064565
  H         6.6587125283        3.8245409604       19.0667198372
  H         6.4849081544        3.3718681904       20.7709070300
  C         5.2868269757        2.2276129522       19.4279429826
  H        11.4459176921        3.5505879240       21.4650881947
  H        12.1289610867        3.2066003340       19.7574628075
  C        12.8147844046        1.9270280683       21.1697280085
  C        10.3950011466        8.0097125895       16.7230588469
  C        10.4098710153        5.8370498389       15.6152126588
  H        -0.0505012509        4.1893307221       28.7148033105
  H         1.6925275503        4.3182835175       28.8308215357
  C         0.5839588104        5.7283404567       29.9990404874
  H         5.2345609218       -1.4286739405       32.0009460482
  C         4.9064313957        0.0183386612       33.3691937304
  H         4.4840961255        2.9891324006       19.5263319811
  H         5.1385149632        1.4847412134       20.2025638581
  C         5.3000169291        1.5121883882       18.0533513067
  H        12.3395233339        1.2592268565       21.9562286697
  H        13.1386637910        1.2548103165       20.3326382059
  C        13.8247653692        2.7535134141       21.8668254016
  N        10.1868520113        8.9712042391       17.7434208551
  C        10.6728812890        8.6237171235       15.5092541358
  C        10.7446360190        6.4074925913       14.4328399369
  H        10.3344432385        4.7829306105       15.7097183174
  H        -0.4347896033        6.0013125602       30.2607630196
  H         1.0672224258        5.2536795382       30.8316877841
  H         1.2942041223        6.6098436068       29.8682147499
  S         4.5436948492        1.6009622871       34.0167714122
  C         4.9270187661       -1.0891506854       34.3831946384
  H         5.8055229999        2.1404693323       17.3092185350
  H         5.9229723141        0.5752222022       18.1194367119
  C         3.8603654973        0.9213306627       17.7116378796
  H        13.3381843348        3.3086895519       22.6738376559
  H        14.0844267615        3.4528559588       21.0968364914
  C        15.0227407710        1.9049081703       22.2881043814
  S        10.0478984020       10.4359551891       17.0822068947
  N        10.6837987788        9.9995210662       15.6501599238
  C        10.8681795045        7.8980918475       14.2961189443
  H        10.7440996660        5.7547158997       13.5296487925
  C         4.4722056472        0.7861787008       35.6215243492
  N         4.7654478854       -0.5267307512       35.6359889617
  O         5.1453288687       -2.2961184019       34.1478355534
  H         3.5421433109        1.2712425990       16.7435010599
  H         3.2124794440        1.4321628838       18.3295040258
  C         3.8402880304       -0.6196117068       17.9020727468
  H        14.6365518832        0.9124531937       22.7533107276
  H        15.6664147033        1.6966832765       21.4168918929
  C        15.7834733477        2.7158015243       23.2985053627
  C        11.1450251156        8.5944423674       13.0724622163
  S         4.3991143432        1.6504485566       37.1435678588
  C         4.9020458092       -1.3131757146       36.8858527009
  H         4.7098624975       -1.0828676419       17.2962561596
  H         4.0368660439       -0.8494525621       19.0144263421
  C         2.4273139522       -1.1985826781       17.7471025857
  H        15.0851910826        2.8599812728       24.1248580137
  H        15.9487288655        3.7184728490       22.9080946721
  C        17.0267768273        1.9315243421       23.7013016782
  H        11.0006681307        9.6793433924       13.1691672830
  C        11.7665437055        8.2138274119       11.9301980711
  H         4.2346965329       -0.9583649927       37.6601961059
  H         4.6288192914       -2.3562810790       36.6332185876
  C         6.2964325301       -1.2762405350       37.4086159652
  H         1.7863436956       -0.3981205418       18.1463808479
  H         2.3234664920       -1.9935953602       18.4600170732
  C         1.9836979124       -1.7464544559       16.3328176679
  H        17.3673613061        2.2608017016       24.6939550158
  H        16.7577947146        0.8582089787       23.7920541857
  C        18.2779355816        1.9832684344       22.7698290886
  S        12.5561704059        6.7126700471       11.5338683444
  C        11.8443513897        9.2860202619       10.9231862382
  H         6.9921073467       -0.6666139290       36.8318780180
  H         6.2887337340       -0.8171299407       38.4110711580
  H         6.7427813705       -2.3487694539       37.5367745064
  H         2.3929985262       -1.2581508265       15.4740897939
  H         0.8722856162       -1.8498736788       16.2425432010
  H         2.4024235239       -2.6862194475       16.2804895701
  H        18.4253441237        3.0162348446       22.4945312656
  H        18.1773744201        1.5018153003       21.8157133295
  H        19.0685318073        1.6168791749       23.2888490054
  C        12.7949220563        7.4888182987        9.9138961374
  N        12.4102194839        8.7493982975        9.8311628955
  O        11.3868350615       10.3974965909       11.0487225073
  S        13.8297504191        6.9529246382        8.6146667653
  C        12.5904519223        9.6303087339        8.6428828331
  H        12.6683681986       10.7041735856        8.8850141861
  H        13.5686682484        9.4123258039        8.1360823725
  C        11.4207038522        9.4313886069        7.6258156983
  H        10.4640459946        9.6961803363        8.0246236607
  H        11.5617497418        9.9935538331        6.6940092662
  H        11.2728979536        8.3566781719        7.4517936065
  H        -2.3669871289       15.7504011624       16.5598410509
  C        -2.4995316291       14.6466362011       16.3822564249
  H        -3.5351041236       14.2669903280       16.4297779254
  C        -1.6385146248       13.9679359840       17.4800283480
  C        -2.0170584118       14.3905520508       14.8871859323
  C        -2.2934646860       13.7267015653       18.8314461871
  H        -1.0702662862       13.1120338576       17.1637565140
  H        -0.9409115892       14.7422187316       17.7178362747
  H        -2.0634312797       13.3371830677       14.5570420573
  H        -2.7033844931       14.8895480320       14.2271954516
  H        -0.9488912716       14.6986509351       14.7029788051
  C        -1.1800671533       13.5579953930       19.9159365107
  H        -2.8780427011       12.7793137286       18.6851804604
  H        -2.9558202930       14.5102071327       19.1903970663
  C        -1.8597304680       13.7159433315       21.3034897228
  H        -0.7075122341       12.5470534880       19.8208937892
  H        -0.4226795023       14.3483777532       19.8399985928
  C        -0.9717490180       13.2722290541       22.4365699374
  H        -2.7084000304       13.1094062398       21.2137085442
  H        -2.3242620698       14.6408418844       21.5431541214
  C         0.2516352242       14.1882702378       22.6884145348
  H        -1.4940202526       13.1801473877       23.4086821635
  H        -0.7579283603       12.2783746786       22.1168773406
  C         1.4562117165       13.4574353169       23.2149007240
  H         0.5474966726       14.6500089932       21.7173009933
  H        -0.0312863040       14.9651064570       23.3342240594
  C         1.8446388855       12.1220923035       22.4651483824
  C         1.0234001985       12.6012466294       24.3797760702
  C         2.6472391754       14.3691098914       23.4080834261
  C         1.6517684172       11.0011721314       23.2812160351
  C         2.2833334640       11.7429915352       21.1577438443
  C         1.0811569771       11.2523760721       24.4596492116
  C         0.5004956117       13.1884685092       25.5398639821
  H         2.7734874417       14.9973739091       22.5767845832
  H         2.4924598690       15.1301601875       24.1547824887
  C         3.9659655068       13.7092517166       23.8210160495
  S         2.0326099205        9.4941850136       22.4695495838
  C         2.3819132355       10.3916267663       21.0622744960
  H         2.5190945257       12.5193334102       20.4441821964
  C         0.6522425055       10.6084959485       25.5844915117
  H         0.6090744828       14.2716253780       25.6837360915
  C        -0.0090914541       12.5188592758       26.6192840639
  H         4.2089545471       12.9038613089       23.1233282360
  H         3.7670936181       13.1716381030       24.6855097861
  C         5.0604046261       14.6647330477       24.1380270036
  C         2.7993022340        9.7461187959       19.7401249513
  C         0.1006201084       11.2001674503       26.6895731635
  H         0.8481851438        9.5588491531       25.6679141843
  C        -0.4265250591       12.8411230169       27.8998238692
  H         5.5504750693       14.2150744362       24.9813269283
  H         4.6996131240       15.6513730907       24.4717174836
  C         6.0960524944       14.9493552029       22.9757093441
  C         2.7509094226        8.3534987524       19.4536143612
  C         3.1160049267       10.6022943208       18.5757946097
  C        -0.2525333333       10.3813055130       27.9286911937
  C        -0.5199371620       11.7307070705       28.7063598663
  S        -0.7738122652       14.3396779349       28.7561514898
  H         6.8524849867       15.6383392632       23.2858038143
  H         5.5470969164       15.4640539277       22.1916435451
  C         6.8770649562       13.6966077709       22.4430177814
  N         2.2439877152        7.3635379249       20.3199464634
  C         2.9358965082        7.8279259557       18.1822187988
  C         3.4446775900       10.0508619490       17.3500783682
  H         3.4277984699       11.6693083753       18.6935243405
  C         0.8925815895        9.6049244374       28.5965377602
  C        -1.6220380767        9.6903195854       27.8066696336
  C        -0.9036934787       12.0353848556       30.0619107536
  C        -1.0779075801       13.3928012806       30.2349777650
  H         7.5611397837       13.3679286572       23.1982698993
  H         6.3399863049       12.8046467472       22.2002526187
  C         7.5980093597       14.1429383245       21.1944518132
  S         2.3925897380        5.9011864360       19.5460381506
  N         2.6759729886        6.4551118239       18.0854904685
  C         3.3547570055        8.6320194237       17.0509404521
  H         3.7756523170       10.7293599271       16.6005913245
  H         1.1194043988        8.8597328235       27.8191817863
  H         0.4123850953        9.1195470811       29.4543924022
  C         2.1494675786       10.4285392233       28.9846355295
  H        -1.5098009262        8.7118596581       27.2171927956
  H        -1.9544896624        9.4975117054       28.8762385603
  C        -2.7361347405       10.4557444343       27.1443616575
  H        -1.0170304590       11.2067932298       30.7175417700
  C        -1.4913095932       14.0325185299       31.5330058096
  H         8.5243355381       13.5968273017       21.1723585972
  H         7.7449866739       15.1781424100       21.1177933946
  C         6.8283174229       13.8436931962       19.9307136529
  C         3.5602952003        8.0008934433       15.7475443204
  H         2.3704289969       11.1405561787       28.1225770664
  H         1.9945398200       11.1311394012       29.8264501018
  C         3.3795897374        9.5419319974       29.1686216032
  H        -2.4007862016       10.7105359039       26.1924999442
  H        -3.0460767833       11.3492661204       27.5964271129
  C        -3.9814824400        9.5395504327       26.9493996852
  C        -1.4495834925       15.4418152371       31.7950046631
  C        -2.0007787755       13.1494286008       32.6345727366
  H         6.4514558228       12.8331456266       19.9631629666
  H         5.9001173079       14.4123562601       19.8031477234
  C         7.7810458520       13.9696948911       18.8020576891
  H         3.1804834015        6.9658080938       15.8052509629
  C         3.8347411618        8.5254013532       14.4947371874
  H         3.6222433614        9.0281307691       28.2596028738
  H         3.1133926636        8.6956838469       29.8802299699
  C         4.6593839775       10.2982936036       29.7271205785
  H        -3.7358815329        8.8402943975       26.1707689775
  H        -4.2425026805        9.1166268807       27.8597529177
  C        -5.1839590752       10.4455244569       26.5305294099
  N        -1.1796159621       16.4061727392       30.7944177980
  C        -1.9613231611       15.9564219001       32.9492350713
  C        -2.2180413831       13.7160145671       33.8522892507
  H        -2.0615030457       12.1050594337       32.5391687121
  H         8.0982328816       13.0198718958       18.4707583287
  H         7.2747280944       14.5066546844       17.9348376902
  H         8.6770744196       14.5806276211       19.0482893527
  S         4.1284474306       10.1630691159       14.1201054376
  C         3.8557771308        7.5187363131       13.3521735822
  H         5.1774342765       10.7284118114       28.8511383934
  H         4.3521431385       11.0766933044       30.3100822193
  C         5.4374573383        9.3678771133       30.6203762329
  H        -4.7576185990       11.3378623617       26.1317842444
  H        -5.7328518368       10.6542925941       27.5077159914
  C        -6.0953445623        9.8321862911       25.4955272161
  S        -1.1205416947       17.8391486418       31.5371214258
  N        -1.8048927297       17.3587691297       32.9473525628
  C        -2.2808320013       15.1871268435       34.1022022622
  H        -2.3322655602       12.9817818887       34.6552748797
  C         4.3646842207        9.4949253471       12.4806600528
  N         4.3174784152        8.1974143032       12.2674397578
  O         3.6943071918        6.3412583358       13.5114703613
  H         4.7375407264        8.9953140455       31.3298787640
  H         6.0740107565        9.8626934923       31.3461520270
  C         6.2946662991        8.3977792889       29.9281460384
  H        -5.6247970920        9.4245355458       24.5459022874
  H        -6.4730668473        8.8727800637       25.9808576135
  C        -7.2309002226       10.8110696613       25.1877626213
  C        -2.4493654306       15.7944082985       35.3933399376
  S         4.7258905341       10.4429067166       11.0030721525
  C         4.4193135208        7.5304958876       10.9901454543
  H         6.1999282236        8.5022239015       28.8948462190
  H         7.3127114671        8.5500823843       30.1750455918
  C         5.8496805314        6.9637886397       30.3069747900
  H        -7.0437136551       11.4036151541       24.3328842819
  H        -7.2634123226       11.5310908856       26.0579314035
  C        -8.5513787007       10.2719294553       24.9523573472
  H        -2.0275327813       16.7243722064       35.4406581128
  C        -3.0332836884       15.3474109317       36.5849597153
  H         5.2296113015        7.9713849478       10.3939781697
  H         4.7994895071        6.5333753587       11.1758406734
  C         3.0994318493        7.5117204674       10.3578886731
  H         5.9964353080        6.3577536828       29.3834457992
  H         4.7264222614        6.9190754474       30.5075450693
  C         6.5892841084        6.3526430936       31.4602167125
  H        -9.1125897989       10.7478476155       24.1559303544
  H        -8.4128024772        9.2212906076       24.7174568352
  C        -9.3826592901       10.3265416331       26.2351687196
  S        -3.8077368320       13.8895241484       36.9033418998
  C        -3.0122174171       16.3096056337       37.6605399261
  H         2.7933796256        6.4950536823       10.0888709171
  H         2.3766973600        7.9556678686       11.0259557308
  H         3.0108321814        8.0365119809        9.3791577387
  H         6.4381990195        6.9543895332       32.3184240443
  H         7.6828952491        6.2429985362       31.3626688122
  H         6.0323582194        5.4394170994       31.7391885787
  H        -9.3178781717       11.2801933063       26.8011291328
  H        -9.1638502736        9.4755804416       26.9531079606
  H       -10.4524787675       10.4584555163       26.1128563761
  C        -4.3426404118       14.6431939169       38.3471110122
  N        -3.9422813594       15.8832335606       38.5769695934
  O        -2.3975105331       17.3911440113       37.6302609171
  S        -5.2827479472       13.9288238687       39.6232071810
  C        -4.1336733676       16.5557425940       39.9311383353
  H        -3.9392614637       17.6073159101       39.7938587958
  H        -5.1441676442       16.5336408889       40.3344107730
  C        -3.0322881855       15.9255197844       40.8838840984
  H        -2.1111438462       15.8529475856       40.3407952619
  H        -2.8309379396       16.5718152422       41.6886304094
  H        -3.2678645654       14.9923004905       41.2519645492
