352
 i =    23200, time =    23200.000, E =        24.5561369531
  H        11.6704105828        7.3615800260       32.5569227045
  C        11.2227188859        6.3863695571       32.2902876979
  H        11.9756513722        5.6441673312       32.3248319920
  C        10.8081897859        6.3504585773       30.8270932390
  C        10.1308550610        5.9052894478       33.2411881032
  C        10.4790289467        4.9264313035       30.2562530588
  H         9.9043713766        6.9768347448       30.8679743809
  H        11.4677704243        6.8642224528       30.0459442815
  H         9.1791940456        6.4037004720       32.9232432105
  H         9.9244597281        4.8291898929       33.1405029884
  H        10.3178484167        6.0493072271       34.2886623221
  C         9.6872343464        5.1250688183       28.9431904454
  H         9.8112743829        4.3962090628       30.9444449134
  H        11.3788757482        4.3351752785       30.2107368222
  C        10.5945489960        5.1264929058       27.7344922029
  H         9.1368208711        4.2753895069       28.7917184866
  H         9.1407839678        6.0888190442       28.9144906095
  C         9.8868383575        4.6396887024       26.4273925562
  H        11.4296677843        4.4748451969       27.8296815224
  H        11.1390664333        6.0742632937       27.7904508151
  C         8.7626496409        5.6851922384       26.0362331822
  H        10.6611150387        4.6480247420       25.6700515437
  H         9.5580115727        3.5659488779       26.5971660277
  C         7.6275961108        4.9992838730       25.2326635318
  H         8.1674047796        6.0687003181       26.9051124904
  H         9.2048686310        6.5076316779       25.4718574030
  C         7.2888040624        3.6547987238       25.9967106346
  C         7.9995655025        4.2634570142       24.0412698268
  C         6.4092029451        5.9348929882       25.0203882053
  C         7.5051648672        2.5862873324       25.1539275703
  C         6.7281938096        3.2413046448       27.1949711537
  C         7.9756166013        2.9329186406       23.9140693695
  C         8.4914058093        4.9574204491       22.8970303084
  H         6.6887003051        6.6424608006       24.2782013903
  H         6.1987031729        6.5401362853       25.8706115944
  C         5.0954091926        5.2009171284       24.6175330880
  S         7.1073203360        1.0540655759       25.9320116647
  C         6.5457859471        1.9081787329       27.3289698252
  H         6.5017803799        4.1161434757       27.8880101756
  C         8.2427606540        2.4118556364       22.6793270220
  H         8.4317247760        6.0406147770       23.1145634158
  C         8.8448972341        4.4016273093       21.7320242146
  H         5.2098153060        4.7461958027       23.6155549505
  H         4.9541982525        4.3387296757       25.2608841626
  C         3.7847697727        5.9508444204       24.7000213045
  C         6.0270461603        1.1325949239       28.5327482062
  C         8.7444320926        3.0933400441       21.5841774291
  H         8.1879469068        1.3742026551       22.6068201239
  C         9.2516748789        4.7579742622       20.4542557433
  H         3.2083508382        5.4953600964       23.8938112943
  H         3.9449734190        6.8986012350       24.2846105539
  C         2.9870842995        6.0921178698       25.9869931375
  C         5.9353419550       -0.2180341840       28.7701942622
  C         5.4670849514        2.0240994018       29.6031608385
  C         8.9728178635        2.3403289516       20.3135889451
  C         9.2457329648        3.6952202036       19.6038597527
  S         9.6543322791        6.2743721066       19.7400922160
  H         2.2641434924        6.8447517906       25.9262695061
  H         3.7313431414        6.4637727345       26.7020817413
  C         2.5226483994        4.8110726375       26.6274593214
  N         6.2855818928       -1.2012908937       27.8651492266
  C         5.4653862303       -0.7419461997       29.9860802916
  C         5.0806819035        1.5165755634       30.7868252171
  H         5.4352246375        3.0944847709       29.4117308909
  C         7.6747377251        1.6382691489       19.7737386429
  C        10.2594254272        1.5188994806       20.4996831820
  C         9.6381989467        4.0827149509       18.2884147102
  C         9.9025837811        5.4079378708       18.2008882021
  H         2.0041080139        4.2061943478       25.8350774983
  H         3.3507972914        4.0975825375       26.8646166707
  C         1.5041954067        4.8746456500       27.8230618814
  S         6.2012712604       -2.6362510866       28.6060099015
  N         5.5620315589       -2.1348437934       30.0304433394
  C         4.9233725076        0.0327647868       31.0365595607
  H         4.7535299484        2.2386473667       31.5250425547
  H         7.3710188629        0.9447416390       20.5317891691
  H         8.0250253928        0.9899408047       18.9972071334
  C         6.5514933557        2.4687172768       19.2191758230
  H        10.3561962948        0.9867039523       19.5773837572
  H        10.1235372945        0.7775128669       21.3128194109
  C        11.5665194040        2.2797157183       20.8129324723
  H         9.8245641392        3.2743278554       17.5069433682
  C        10.2498656659        6.1315247411       16.8946340473
  H         0.8819887113        4.0514186464       27.6965604167
  H         0.8780885931        5.7838180065       27.7947960028
  C         2.3079054423        5.0898538992       29.0883100691
  C         4.5984648089       -0.5575371880       32.3074834044
  H         6.9547574520        3.0365555076       18.4214603950
  H         6.1647188331        3.0888036915       20.0788099944
  C         5.5015290378        1.4983750153       18.6875537998
  H        11.4397116991        2.7022062113       21.7960109533
  H        11.6513530190        3.0212199020       20.0347710910
  C        12.8460619672        1.4944301732       21.0039700185
  C        10.2706913887        7.5516330670       16.7699097574
  C        10.2031424154        5.3367225771       15.6044576760
  H         3.0870601098        4.3987706115       29.3013007803
  H         2.9308167417        5.9514395163       29.0523805384
  C         1.4719944219        5.1443239472       30.3628192438
  H         4.7242037486       -1.5991482623       32.3971839748
  C         4.4127909832        0.0597430672       33.5764053569
  H         5.2119674901        0.8429646881       19.4908620587
  H         6.0448524177        0.8974976164       17.8856250331
  C         4.2911977085        2.1523659053       17.9729129921
  H        12.8079828919        0.7697740432       21.7887983804
  H        12.9717476797        0.8555437090       20.1429153137
  C        14.0718585689        2.4624272432       21.1125599349
  N        10.0278103814        8.5310555985       17.7111709400
  C        10.4646010687        8.0953753533       15.4881103533
  C        10.4765532861        5.9297167537       14.3706873006
  H         9.9989660205        4.2549348800       15.6735503046
  H         0.7487060715        6.0266851825       30.3659639161
  H         0.7606440313        4.3504560948       30.3514599328
  H         2.0965838030        5.1511446204       31.3129657687
  S         4.2983928092        1.7141188858       34.1547884285
  C         4.3708729350       -0.9373472188       34.7638492109
  H         4.1657483355        3.2143542802       18.3675110277
  H         4.4893970735        2.2120001663       16.9267634212
  C         2.9890617920        1.3115968731       18.2203941539
  H        13.8106267355        3.3319462158       20.4246653253
  H        14.8486633165        1.8658668850       20.6441968696
  C        14.3930496679        2.9892611429       22.5077907639
  S        10.1695751854        9.9812758721       16.9908537691
  N        10.5609348343        9.5199848420       15.5420547410
  C        10.5901684206        7.4283757348       14.2597135298
  H        10.5355847101        5.2889459724       13.5250872851
  C         3.9883580395        0.9752616071       35.7780206552
  N         4.1200819370       -0.3400499810       35.9146112854
  O         4.6213110618       -2.1380273930       34.5977287126
  H         2.1161936822        1.9426374598       18.0353171006
  H         2.9554930960        1.2279591135       19.3521369798
  C         2.7687116467       -0.0686539084       17.5512382519
  H        15.1386429586        3.8024983633       22.4576194972
  H        13.4658015297        3.4782586406       22.9260584793
  C        14.8792327779        1.9536741152       23.5559050752
  C        10.7413238629        8.1156411063       13.0000227115
  S         3.5507344745        1.8963772148       37.2107645420
  C         4.1233225516       -1.1257424850       37.1530038726
  H         2.5272578590        0.0934286360       16.4889842452
  H         3.6772248909       -0.6756313662       17.5693038604
  C         1.6328756559       -0.7829180792       18.2541866728
  H        14.9587465274        0.9676799429       23.0163975128
  H        14.0963497258        1.9444988533       24.2510608977
  C        16.2320611135        2.3983222337       24.0765045758
  H        10.4706638897        9.1776053555       13.0555207494
  C        11.2830392012        7.7722103768       11.7993112244
  H         3.6520219417       -0.5160545584       37.9643577834
  H         3.5486958346       -2.0304145150       37.0670217631
  C         5.5132894246       -1.5629231507       37.5780245714
  H         0.7476634693       -0.2806457718       18.2562853949
  H         1.8076511362       -0.9069340484       19.3005577568
  C         1.2748235545       -2.0845474570       17.5769613238
  H        16.1725825386        3.3955440228       24.5190146077
  H        16.5570718582        1.8666865422       24.9594445059
  C        17.3016706378        2.4278282105       22.9884995858
  S        12.2622979757        6.3509269860       11.4488991631
  C        11.3293258001        8.7588849999       10.7242640280
  H         5.9722096959       -2.1845093919       36.8377362904
  H         6.1143182584       -0.7168410625       37.8921772088
  H         5.3898156539       -2.2037490873       38.4343221944
  H         0.6310657036       -1.8660164295       16.7717828829
  H         0.7944860103       -2.7374542331       18.2813933070
  H         2.1675746710       -2.6992707823       17.2395186171
  H        18.3198932206        2.3914351709       23.3229493567
  H        17.2739489196        3.3292084259       22.4070974292
  H        17.0982402772        1.6629229341       22.2253575030
  C        12.4750704702        6.9984074666        9.8493146293
  N        11.9512038574        8.2374671915        9.6607415330
  O        10.8374143755        9.8996376099       10.8556662983
  S        13.2082324105        6.1357835041        8.4778886921
  C        12.1353497282        8.9271292750        8.3783506556
  H        12.6709363130        9.8678063148        8.4872109442
  H        12.7032599222        8.4220641954        7.6045986138
  C        10.7121819424        9.1707686980        7.7726297842
  H         9.8073924244        9.0376773047        8.3873214363
  H        10.6400350091       10.1504450360        7.2602943138
  H        10.6852328656        8.4976116347        6.9092980567
  H        -4.1273500288       14.2747541852       16.1815060000
  C        -3.8694826180       13.2618999652       16.2554443006
  H        -4.7478213277       12.8012234129       16.6745168544
  C        -2.7575080960       12.9523162674       17.1878978232
  C        -3.6223167171       12.6301402194       14.8634154557
  C        -3.0829210433       13.1277687734       18.7055564689
  H        -2.5265449646       11.9392217085       17.0583854707
  H        -1.8915925100       13.5604526514       16.9213826238
  H        -3.1686445048       13.3382037224       14.2294137703
  H        -2.9079788555       11.8083147467       14.9754036959
  H        -4.5443920827       12.3349186110       14.3651427943
  C        -1.9260774348       12.8342149333       19.6076518796
  H        -3.8455090611       12.4108666684       18.9905324729
  H        -3.5489504937       14.0983494165       18.9146004066
  C        -2.4182482976       12.5618485052       21.1062095204
  H        -1.4002236559       11.9296612352       19.3754071158
  H        -1.0654152855       13.5196178017       19.6219419577
  C        -1.2515051498       12.1417389174       22.1116500110
  H        -3.3665107131       11.9789413011       21.2806531854
  H        -2.7657395841       13.4707339462       21.5477175334
  C        -0.1660940301       13.1565772166       22.4036619770
  H        -1.7706725319       11.8757865012       23.0350579188
  H        -0.8868741446       11.1782620942       21.7414765396
  C         1.1210554338       12.5670524888       23.0916339523
  H         0.1499981786       13.5249998650       21.4812564981
  H        -0.6464123777       13.8892494613       23.0851744236
  C         1.5335595653       11.2791616196       22.4552986767
  C         0.6640339568       11.7896030073       24.3118954862
  C         2.2249807446       13.6245247759       23.3376989407
  C         1.4248630896       10.1697434569       23.3025201113
  C         1.9873873779       10.8840418836       21.1900001438
  C         0.8218225174       10.5064361806       24.4899107064
  C         0.1696383226       12.5480810673       25.4283204672
  H         2.3856697223       14.2708758728       22.4039924708
  H         1.9733441062       14.2121018768       24.1902865973
  C         3.5755609331       12.9851978995       23.7082700925
  S         1.8477025147        8.6786826661       22.5361828269
  C         2.1396531393        9.5630510674       21.0545715241
  H         1.9474053765       11.5222031514       20.3246000822
  C         0.5520310183        9.9662206946       25.6701721066
  H        -0.1183819519       13.6142628757       25.3479850989
  C        -0.1790898935       11.9477105202       26.6107806541
  H         3.8180621080       12.3169368864       22.8927760494
  H         3.5721066638       12.3130151718       24.5797003331
  C         4.8749902774       13.8456967749       23.8110540836
  C         2.5078080946        8.8692093665       19.7596981626
  C        -0.0040841233       10.6210130641       26.7719537811
  H         0.7128131644        8.8983509800       25.7765396616
  C        -0.6604106641       12.4008644339       27.8351774445
  H         5.5921058944       13.3404189713       24.4633892983
  H         4.6880453272       14.7890016148       24.3267462755
  C         5.5529379321       14.0215786033       22.4868115239
  C         2.5694199527        7.4446208119       19.5711421742
  C         2.9917476193        9.6987293437       18.6814697257
  C        -0.3682709845        9.9401294768       28.0941219118
  C        -0.7176694695       11.3355863961       28.7522580426
  S        -1.0664311009       13.8817620363       28.5699941789
  H         6.3090370953       14.7281384208       22.8104235058
  H         4.9791479974       14.5195881738       21.7659380329
  C         6.1905376424       12.7332944960       21.9245653934
  N         2.2758439372        6.3810851387       20.5063426937
  C         2.9875358985        6.9131443970       18.3423347683
  C         3.3251544237        9.1629888374       17.4672196791
  H         3.1110316289       10.7859991955       18.9169883827
  C         0.7533605952        9.0620051354       28.7527776091
  C        -1.7302240996        9.1605197967       27.9801374781
  C        -1.0720870673       11.8082424991       30.0368779902
  C        -1.3205804130       13.1599621412       30.0929126197
  H         6.5444920170       12.1383128740       22.7537417088
  H         5.3223536547       12.2197082272       21.5210975891
  C         7.3472613398       13.0302077752       20.9661456814
  S         2.6100301567        4.9469900903       19.8312502203
  N         3.0585561100        5.5134754197       18.3365605208
  C         3.3685510948        7.7026316722       17.2190972040
  H         3.6200886091        9.7604017996       16.6710970518
  H         1.0983734125        8.4198718854       27.9779713724
  H         0.4100812069        8.4582588186       29.5693973587
  C         2.0323785245        9.8447398716       29.2938628134
  H        -1.4703565389        8.3583171230       27.2367535479
  H        -1.8990533968        8.8093268713       28.9689157179
  C        -2.9047842452        9.9602984386       27.3607771086
  H        -1.2399405844       11.1397417783       30.8463044677
  C        -1.6438504905       13.8324700992       31.4424217189
  H         7.7771348803       12.0254116742       20.7805138587
  H         8.0339275902       13.6424542553       21.5498593439
  C         7.1036135503       13.7357742749       19.6124053258
  C         3.5515597056        7.0651692529       15.9960636869
  H         2.4527882820       10.4677920156       28.5416928024
  H         1.6603087271       10.5576302901       30.0276117910
  C         3.1352471299        8.8512667686       29.7561131790
  H        -2.5935624525       10.4341797513       26.4039459250
  H        -3.1038118823       10.8390672931       27.9043419823
  C        -4.2072356712        9.1840162198       27.3013109082
  C        -1.7765181361       15.2304689569       31.6194968030
  C        -1.8906080333       13.0712503242       32.7356137717
  H         7.2717898964       14.7558090768       19.8872487087
  H         7.8937253443       13.2870046683       18.9171726265
  C         5.7526402058       13.5212159199       18.9204402447
  H         3.5812164115        5.9755040557       15.9693569956
  C         3.7331952934        7.5251793616       14.7266284027
  H         3.1810211423        8.1941684748       28.9239646843
  H         2.7607845238        8.3473759140       30.6360859583
  C         4.4722832482        9.4626925526       30.0308320152
  H        -4.0141287709        8.2678796234       26.6604060270
  H        -4.4504319300        8.6829866852       28.1664354297
  C        -5.3470900414        9.9908634218       26.6847185598
  N        -1.5544616391       16.2154912290       30.5892541065
  C        -2.1786197323       15.8991458232       32.8017135637
  C        -2.2151287215       13.7521256869       33.9585937833
  H        -1.8131039487       12.0130645203       32.6678025742
  H         4.9853304921       13.8587012812       19.5449455304
  H         5.7687252321       14.1693196484       17.9993495602
  H         5.5763123808       12.4640347832       18.6567138927
  S         3.7623940508        9.1589255781       14.2276214679
  C         3.8846244835        6.5313002880       13.6461653861
  H         4.5658830079       10.1832611422       29.1912281545
  H         4.4110672473       10.1100834827       30.8937933118
  C         5.6166952988        8.4797144169       30.2382996008
  H        -5.0160011931       10.3861625289       25.7394053759
  H        -5.5767211789       10.8794415019       27.3415582497
  C        -6.6136200763        9.2141422542       26.3169236890
  S        -1.8684411734       17.6922129691       31.1846733108
  N        -2.2115860102       17.3106246621       32.7149131780
  C        -2.3193079210       15.2012821975       34.0498868929
  H        -2.3499681699       13.1305705690       34.7791225779
  C         4.1977116693        8.5202413988       12.6847375846
  N         4.2528481818        7.1671840703       12.5770322057
  O         3.8005181629        5.3043613005       13.7808002459
  H         6.5429537181        9.0174117201       30.2917490200
  H         5.7964321245        7.8066449015       29.3392289351
  C         5.3991510147        7.5868572643       31.4322902956
  H        -6.5815200237        9.0496009035       25.2535310964
  H        -6.7124200736        8.1802642213       26.7321904579
  C        -7.9244264135       10.1185933442       26.6421357508
  C        -2.6494464727       16.0177195594       35.2356528856
  S         4.6783315311        9.6021888446       11.3995131881
  C         4.4626017532        6.5278190187       11.3135515771
  H         5.2711481976        8.1748223121       32.3083639692
  H         4.4194607143        7.1572831908       31.2853703257
  C         6.5376856946        6.4494521656       31.5719134778
  H        -7.8330093350       11.1327614842       26.2897227271
  H        -8.1504874379       10.0029632702       27.7021790559
  C        -9.1309364715        9.4779113805       26.1307719052
  H        -2.1230597938       16.9555696665       35.3592389245
  C        -3.2058126142       15.6537725780       36.4514830352
  H         5.2896611402        6.9576843276       10.7111784351
  H         4.7817322518        5.5070131240       11.5551890354
  C         3.1324437474        6.4422007118       10.5808433176
  H         6.6072047814        6.0453103032       32.5958579299
  H         7.4922108519        6.9512442835       31.2422815626
  C         6.3521007584        5.3599249202       30.5938884590
  H        -9.2345514150        8.4737261926       26.5741751719
  H       -10.1053724424        9.9499150159       26.4042508183
  C        -9.1782747106        9.5396787626       24.6370124447
  S        -3.7701415111       14.0946566736       36.8251397637
  C        -3.2261699359       16.5584172027       37.5775580186
  H         3.2942521128        5.8850182002        9.6986270325
  H         2.3023620004        5.9748347619       11.1507620838
  H         2.7627498194        7.4386138910       10.3056802396
  H         6.6097355707        5.6405772854       29.5731914917
  H         5.3957414531        4.8525204526       30.6514719968
  H         7.1159373215        4.6376004305       30.9370590195
  H        -8.7077113006        8.6536045661       24.1888105970
  H        -8.6895689909       10.4431322570       24.2052577996
  H       -10.2290775965        9.4301848348       24.2396093399
  C        -4.1537671869       14.6832383065       38.4147153881
  N        -3.8761197329       16.0143813964       38.5892407522
  O        -2.7331048258       17.6726072841       37.4070272724
  S        -4.5945325813       13.7216963360       39.7861068932
  C        -4.0437012237       16.8038900931       39.8406190086
  H        -4.4204282540       17.7852069664       39.6200736236
  H        -4.9431770574       16.5646116884       40.3612811833
  C        -2.7204889112       16.9078717939       40.6755217402
  H        -1.9945665135       17.6663035138       40.2491566433
  H        -2.9778452182       17.1970973451       41.7274229887
  H        -2.3262293188       15.9154625988       40.8618680573
