352
 i =    39400, time =    39400.000, E =        24.8347937086
  H        12.2177176788        6.4803707991       32.4623454270
  C        11.6813902806        5.5029271988       32.3816460774
  H        12.2923316325        4.6814083020       32.1250379077
  C        10.6058055798        5.5796793379       31.3017000149
  C        10.9217529289        5.3414247942       33.6327106133
  C        11.1501450492        6.0285629705       29.8630325508
  H        10.0418173101        4.6950740509       31.2438557205
  H         9.8909924678        6.2874264218       31.5330956900
  H        11.4823376534        5.9047882077       34.4513044947
  H         9.9232253917        5.8556847577       33.6230416146
  H        10.6768491392        4.3491492350       34.0142100848
  C        10.5399574272        5.0875610701       28.7541230963
  H        12.2179036936        6.0054567852       29.8443458896
  H        10.7693996226        7.0259610667       29.6637358573
  C        10.9026604945        5.5314262083       27.3332167198
  H        10.8466288795        4.0696044900       28.9537575306
  H         9.4746920062        4.9209663595       28.8454315513
  C        10.0303216383        4.9546945844       26.2947788685
  H        11.9790490745        5.2519338260       27.1622277644
  H        10.8276929950        6.6177291225       27.2103118999
  C         8.7792641266        5.7554817028       26.0672141402
  H        10.5626980675        4.7283732554       25.4006847261
  H         9.8147239326        3.9898054072       26.7005156853
  C         7.6270166384        5.0062179446       25.3426809506
  H         8.4094497837        5.9796531571       26.9496403181
  H         9.0908734765        6.7108207794       25.4817263031
  C         7.2545369488        3.6940640912       26.0674390258
  C         7.9894244826        4.2600497894       24.1145891426
  C         6.3145274734        5.8219967859       25.3075288149
  C         7.3403787817        2.6154802555       25.2435539710
  C         6.7730364247        3.3075670843       27.3764137792
  C         7.7021648154        2.9425196004       23.9674106445
  C         8.5008173197        4.8845504149       22.9510822678
  H         6.6878015396        6.5297447762       24.5128575117
  H         6.2717600423        6.2931355673       26.2790900181
  C         5.0304896757        5.1361168148       24.7831707836
  S         6.9275392634        1.1158689840       25.9893996723
  C         6.5495006051        1.9527413526       27.4542092517
  H         6.5647176245        3.9997663191       28.1137263377
  C         8.0459617907        2.3050785358       22.8102168376
  H         8.6887591445        5.8915047756       22.9211876627
  C         8.8350193554        4.2078776391       21.7677266503
  H         5.3286334383        4.7406353864       23.8322563521
  H         4.9644064255        4.3089659171       25.4289847802
  C         3.7144946099        5.8873757376       24.7040226899
  C         6.0488309436        1.2550339573       28.7041957231
  C         8.6251805513        2.9190904180       21.6438171294
  H         7.9861982428        1.2433981310       22.7693230236
  C         9.2649727160        4.5609446646       20.5298085899
  H         3.0462574896        5.3328688743       24.0003785727
  H         3.8468044817        6.7714813456       24.2211994980
  C         3.0031778929        6.1426944520       26.0376010338
  C         5.9933161089       -0.1720260353       28.8762561243
  C         5.5962840627        2.0512158201       29.8382032685
  C         8.9950110735        2.1349297019       20.4140549724
  C         9.2771320680        3.5059614997       19.6851536712
  S         9.4713609417        6.0985741638       19.7462260927
  H         2.2127503437        6.8358433642       25.7801183093
  H         3.6169001683        6.6850783533       26.7493366868
  C         2.3657683468        4.8877511020       26.5983199931
  N         6.2436319076       -1.1397603490       27.9069088962
  C         5.7342264017       -0.7603823994       30.1170216889
  C         5.3680111670        1.4492806949       31.0789192175
  H         5.5849415565        3.1356703848       29.7549308586
  C         7.8170751640        1.3629537585       19.8413357748
  C        10.2839252513        1.3069098147       20.5993951244
  C         9.6837710719        3.9135088643       18.3902483866
  C         9.8305078759        5.2264387773       18.3318514976
  H         1.5687170567        4.4528595429       25.9937011365
  H         3.1977351750        4.1384713997       26.8389449700
  C         1.6427845010        5.1374011276       27.9789299045
  S         6.1622530809       -2.6375434505       28.5754022425
  N         5.8212307664       -2.1654105636       30.0694741181
  C         5.3969090873       -0.0146719594       31.3155796511
  H         5.0912967960        1.9470122349       31.9781024873
  H         7.3882052077        0.8321893870       20.6646186361
  H         8.2344717470        0.7300716931       19.1396296227
  C         6.6339913052        2.1682636399       19.2977825250
  H        10.4606038562        1.0332300449       19.5527260147
  H        10.0708791768        0.4071996941       21.1552059882
  C        11.5287481558        2.0862037442       21.1034005041
  H         9.7007749616        3.1393005322       17.6409385062
  C        10.1108964733        5.9753323869       17.0653333534
  H         1.1393242468        4.2478531053       28.1613024563
  H         0.9297560226        5.9676391554       27.9179240826
  C         2.6114957178        5.3378010354       29.1472410203
  C         5.1136695853       -0.7350696947       32.5638152321
  H         6.8589075600        2.7776316840       18.4504666038
  H         6.3092285720        2.7687156553       20.1876379558
  C         5.5021179244        1.2069981411       18.9624195573
  H        11.3015018628        2.3957248070       22.1278862797
  H        11.7825084926        2.9667063423       20.5113356818
  C        12.6871929051        1.1047457677       21.3421890326
  C        10.1825444545        7.3978015024       17.0068726756
  C        10.3937612520        5.1930758377       15.8128129676
  H         3.3717993173        4.5520322062       29.2450793006
  H         3.2717989020        6.2039547001       28.9018874517
  C         1.9686243290        5.7201929106       30.4961690513
  H         5.4378468287       -1.7775947435       32.4311639311
  C         4.7497598666       -0.2892852712       33.8032498881
  H         5.1499986870        0.8597000621       19.9330579621
  H         5.8672387016        0.3352228167       18.4525756839
  C         4.3789073963        1.8143733589       18.0929048944
  H        12.5745400415        0.6042766679       22.2954900051
  H        12.5078109842        0.3175835097       20.5587973965
  C        13.9696839364        1.8148858284       21.0992056885
  N         9.8975145947        8.3621349396       18.0321939131
  C        10.3103324648        8.1265119466       15.8476574703
  C        10.5997411663        5.9362579353       14.6268287189
  H        10.2875092346        4.1143476359       15.7306489036
  H         1.3481351439        6.5919765769       30.3359737945
  H         1.4438824508        4.8854245555       30.9991023206
  H         2.7412082954        5.9815599755       31.1955996453
  S         4.3952388319        1.3197516810       34.3406471115
  C         4.7512252489       -1.2617160903       34.8496451026
  H         4.4502022243        2.8808092738       17.9838266989
  H         4.5175390162        1.3206770417       17.1031333849
  C         2.9256475889        1.4549702554       18.3735780235
  H        13.8144566494        2.4899579853       20.2668919341
  H        14.8860980712        1.3115216561       20.7423364918
  C        14.4355595150        2.6374291841       22.3195861550
  S         9.9649847798        9.8664653006       17.5189996592
  N        10.2038247181        9.4696469161       15.9591626450
  C        10.6291609455        7.4463257373       14.6308920041
  H        10.7193837716        5.4236772402       13.6707773081
  C         4.3718980059        0.6260648397       35.9220899454
  N         4.5681910446       -0.6818725790       36.0177228382
  O         5.0651986673       -2.4408193556       34.7204800029
  H         2.2821217231        1.8935064780       17.6562755155
  H         2.6564916765        1.9420832114       19.3283392899
  C         2.6008305533       -0.0015596328       18.5795477585
  H        15.0638988770        3.4643071435       21.8891018404
  H        13.6374397224        3.0840004392       22.8361268102
  C        15.3562920303        1.8035548480       23.3017739233
  C        10.9267707937        8.2375681130       13.4851200820
  S         4.0692301896        1.6458959518       37.3622421142
  C         4.7478948200       -1.4114162140       37.2769901103
  H         3.4199938274       -0.4253381010       19.1443428374
  H         1.6750319058       -0.0568074603       19.0267871266
  C         2.5414836197       -0.7746667073       17.2435768426
  H        15.6188935573        0.8173396756       22.8592192670
  H        14.7300720023        1.4899119637       24.1635062753
  C        16.5885315700        2.5188770093       23.7412626557
  H        10.7674518945        9.2993083475       13.6074796066
  C        11.4489151363        8.0114663803       12.2223512779
  H         4.0872516199       -0.9028109487       38.0520531121
  H         4.4059183774       -2.4106163645       37.1094857146
  C         6.2332153471       -1.3319134478       37.6781520921
  H         3.5683926593       -0.8657297448       17.0206540800
  H         2.1974808141       -0.2967513292       16.3881616844
  C         2.0002202912       -2.1821734762       17.4058571278
  H        16.3417809848        3.5950845776       23.9268319845
  H        16.8901531164        2.0795918518       24.6804264912
  C        17.7606345575        2.4066206254       22.8467050588
  S        11.9675287652        6.5121070931       11.6078206331
  C        11.6104795580        9.1447260491       11.2445108825
  H         6.6754578995       -2.2844831259       38.1215464136
  H         6.7368703491       -1.2242513246       36.7445483718
  H         6.3967610019       -0.4990080627       38.3061748276
  H         1.9269411596       -2.6060574008       16.3966962371
  H         1.0781752369       -2.2356710371       18.0180420513
  H         2.7710820741       -2.8534413496       17.9501083303
  H        18.6485978143        2.3578712192       23.4338578374
  H        17.6739584354        3.1985489110       22.1103170732
  H        17.7707371838        1.4659743653       22.3027010283
  C        12.2744808452        7.3361321024       10.0577890884
  N        12.1829147963        8.7028392641       10.1062295276
  O        11.2658595640       10.3035541304       11.4820617826
  S        13.1682658611        6.6663342295        8.7010452159
  C        12.2487425125        9.5796494714        8.9456108680
  H        12.4998701068       10.5427497889        9.3751201332
  H        13.0714387378        9.2680410103        8.3037476561
  C        10.9618195761        9.5131613067        8.0867878978
  H        10.6687995463        8.4777652561        7.7940718114
  H        10.1868790503        9.9118911549        8.6694129657
  H        11.0614935787       10.1419873895        7.2491907908
  H        -3.4467027275       14.7167342410       16.2278719445
  C        -3.4019729868       13.6155899723       16.1954357660
  H        -4.3465061904       13.3725135260       16.7491820803
  C        -2.2231921870       13.1434984823       17.0505121775
  C        -3.2785637329       13.0745463174       14.7153793078
  C        -2.1882448958       13.7304558112       18.4670864152
  H        -2.2030587479       12.0388033021       17.0536506412
  H        -1.3421463284       13.4756252572       16.5428872516
  H        -4.1547373249       12.3946131012       14.4714462625
  H        -3.0908211494       13.9285764568       14.0018352659
  H        -2.4550177787       12.3571126394       14.5600876684
  C        -1.8235471238       12.7782060550       19.5843143219
  H        -3.1887919144       14.0537525312       18.7715542991
  H        -1.5893754733       14.6675686636       18.4644113300
  C        -2.2604970650       13.2283470132       21.0090726898
  H        -2.1769481962       11.8434429220       19.2266750165
  H        -0.7108353844       12.6338277758       19.6096080178
  C        -1.2762215852       12.6475344695       22.0981275560
  H        -3.1922376735       12.7782399714       21.2053317488
  H        -2.4260839604       14.3177483708       21.0271933667
  C        -0.1626068264       13.6318709004       22.4368488942
  H        -1.8271960474       12.3520708348       23.0058471724
  H        -0.8509355885       11.8346420332       21.6280872817
  C         1.0250775297       12.8094176279       23.0917186808
  H         0.1793495629       14.1631266826       21.5039683567
  H        -0.5965859981       14.3928719384       23.1654510768
  C         1.4168779477       11.4858327671       22.3995390312
  C         0.6533248378       12.0646481058       24.3628635459
  C         2.2588576427       13.6884975727       23.2960828882
  C         1.2071192860       10.3899842132       23.2392210044
  C         1.8575164096       11.0847533499       21.1387395318
  C         0.7562792233       10.7307842095       24.4947900251
  C         0.2547829760       12.7338874779       25.5132010596
  H         2.4883566057       14.0402381781       22.2663154450
  H         1.9803045834       14.5425903900       23.8118672257
  C         3.5793308224       13.1213121938       23.8497777024
  S         1.6911310437        8.9285983275       22.5536133888
  C         2.1187662523        9.7463878959       21.0500035730
  H         2.2433028523       11.7628734782       20.3835962493
  C         0.3012592333       10.1214477326       25.6272157237
  H         0.2344607579       13.7964581149       25.5277461500
  C        -0.1762541224       12.1241203829       26.7060537431
  H         3.7802192401       12.3184842841       23.1184451559
  H         3.2807933628       12.6232702944       24.7769147746
  C         4.8639131601       13.9328787878       23.9788955424
  C         2.5725461059        8.9363868823       19.8203014885
  C        -0.1942923328       10.7881366261       26.7544304819
  H         0.4203498308        9.0405064486       25.6137231458
  C        -0.5430395589       12.5607044093       27.9855617832
  H         5.5313274360       13.6392865031       24.8381151293
  H         4.5994550422       14.9218554487       24.2855140932
  C         5.6984053054       14.0225288061       22.7167726563
  C         2.5105876893        7.5388332670       19.6203690729
  C         2.9672349842        9.7448171080       18.6339189847
  C        -0.5034216947       10.0947069910       27.9983717116
  C        -0.7133657855       11.4603100580       28.7385204454
  S        -0.7562493962       14.0597227311       28.7608425820
  H         6.4222953170       14.7769819653       22.8848812249
  H         5.0049711598       14.3027955187       21.8766250953
  C         6.3855525299       12.7312520306       22.3555727245
  N         2.1587039765        6.5833935700       20.5870232132
  C         2.9030495592        6.9884418119       18.3895836144
  C         3.3114482898        9.2199542846       17.3964229497
  H         3.1436212547       10.7660153274       18.7912520831
  C         0.6651648093        9.3264061208       28.6779180821
  C        -1.8423236498        9.3518880128       27.8799872051
  C        -1.2486292195       11.8293659030       30.0243582355
  C        -1.2703147220       13.1600767281       30.2005044303
  H         6.9088254871       12.3575368376       23.2090262210
  H         5.7273016732       11.9280793203       21.9263707349
  C         7.4263273296       12.8871351765       21.2772895932
  S         2.4056654791        5.1303079519       19.9035709627
  N         2.8944430212        5.5909285321       18.3949002461
  C         3.3226059402        7.7890895652       17.2365380516
  H         3.7439427321        9.9520231795       16.7406885924
  H         1.0142544277        8.6389037516       27.8549485181
  H         0.1210842679        8.7735664978       29.4557611650
  C         1.8639104914       10.1528280686       29.2580678276
  H        -1.7726531122        8.6755485801       27.0130859922
  H        -1.9164970863        8.6841575593       28.7295981698
  C        -3.0210838246       10.3259481235       27.6729420626
  H        -1.3520517072       11.0599828230       30.8230211116
  C        -1.6340186911       13.8669587430       31.4581620954
  H         7.8307526774       11.9216746381       21.0373272172
  H         8.2419048927       13.4545138319       21.6465046871
  C         6.9914429891       13.6368845564       20.0305258276
  C         3.5359651110        7.1470316081       15.9370755691
  H         2.2066360341       10.8574180288       28.5392302597
  H         1.4408450404       10.7944270275       30.0419701778
  C         3.1112981992        9.4418857677       29.7427183456
  H        -2.9299604792       10.9893325842       26.7844461537
  H        -3.1665060561       11.0702342844       28.5006586860
  C        -4.2552397037        9.5451362919       27.2293278776
  C        -1.5381966791       15.2662267487       31.5889217852
  C        -2.0017633976       13.1370298202       32.6521592772
  H         6.9208847562       14.7218439239       20.2312960686
  H         7.7761190274       13.5065735269       19.2921076161
  C         5.7455942048       13.2450359119       19.3899114987
  H         3.4003973784        6.0923654638       15.8652390244
  C         3.8088880670        7.6761888807       14.6868632673
  H         3.6526665684        9.1242368771       28.9107355744
  H         2.8973564641        8.4287944732       30.2152110378
  C         3.9151751686       10.2767412799       30.6979726293
  H        -3.8483150294        8.6931978297       26.6581828534
  H        -4.9204203407        9.2139645190       27.9743399578
  C        -5.1669972513       10.3864368021       26.2635143970
  N        -1.0532899918       16.1898574975       30.6716841234
  C        -1.8073623238       15.8678111361       32.8127401516
  C        -2.2365074068       13.7449764040       33.9115831651
  H        -1.9114136937       12.0422592307       32.7029381986
  H         5.8948403996       12.6394232561       18.5125430495
  H         4.9737100133       12.8445615231       20.0385433633
  H         5.3415239207       14.2043181094       18.9916603438
  S         3.9585585762        9.3166535061       14.1757952431
  C         3.9033407146        6.7064663627       13.5450691971
  H         3.8553985174       11.2998676230       30.2809251598
  H         3.3371625467       10.2896240599       31.5752114684
  C         5.4041338339        9.8800305061       31.0062778870
  H        -4.5931139115       10.5567995517       25.3993445606
  H        -5.2323842138       11.3837745816       26.7013059242
  C        -6.5312785722        9.7442045026       26.0629654468
  S        -1.3357467549       17.6816688978       31.3111673337
  N        -1.6986463063       17.2454396780       32.8083927230
  C        -2.1746902337       15.2642152808       34.0280252206
  H        -2.4684362825       13.1450455620       34.7369342338
  C         4.2093928733        8.7151407850       12.5478670979
  N         4.1155544544        7.3845893463       12.4208323750
  O         3.8995304378        5.5392357281       13.7175974005
  H         5.6735204705       10.7078729400       31.6877821361
  H         5.9903225129       10.0057120322       30.1312388883
  C         5.7036474335        8.4599912845       31.6079520375
  H        -6.3606671608        8.7509571565       25.6518314917
  H        -7.0963070858        9.6826228262       26.9875752395
  C        -7.1755265720       10.4654910688       24.9058635046
  C        -2.3535150963       16.0808260052       35.1858529319
  S         4.3184572367        9.6875148987       11.0302867032
  C         3.9367864630        6.7551942097       11.0794792149
  H         6.4526248918        8.5991695241       32.4154375159
  H         4.8048502838        8.0886189514       32.1420347441
  C         6.3079731418        7.4030853271       30.7542381701
  H        -6.6444896355       10.0806781450       24.0592624059
  H        -7.0161055322       11.5269192402       24.8785138301
  C        -8.6102501394       10.0929118589       24.7675575514
  H        -2.1571506302       17.1715718175       35.0739768197
  C        -3.0118322290       15.8061122630       36.3400592089
  H         4.6259954353        7.1803475185       10.3115350237
  H         4.3197101363        5.7579191109       11.2517299297
  C         2.5069118564        6.7467150864       10.6576117815
  H         7.3771160509        7.4794480110       30.5963423399
  H         5.6631082586        7.2937542976       29.8541395289
  C         6.0523473533        6.1027766849       31.5033514291
  H        -9.0293736800       10.6943842244       23.9316924156
  H        -8.6837021618        9.0542917179       24.5829599356
  C        -9.3481595676       10.5260381349       26.0104221894
  S        -3.7166125674       14.2457224468       36.7521825405
  C        -3.2413496889       16.8683078439       37.3136043659
  H         2.2535606316        5.8836356828       10.1483721010
  H         1.7838098141        6.7891257762       11.4054316896
  H         2.3093139246        7.6406807109       10.1015715902
  H         6.3059211901        5.9973611222       32.5243457699
  H         6.4869593351        5.2739601289       30.9261511234
  H         4.9326832080        5.9115228525       31.3987264907
  H        -8.8954675436       11.4597066257       26.4285973319
  H        -9.3618608664        9.7818801716       26.7730776457
  H       -10.3881868128       10.6719210063       25.8497263457
  C        -4.1033378406       15.0149603757       38.3287224692
  N        -3.8661429915       16.3726591003       38.4277955343
  O        -2.7392663371       18.0002019710       37.2298032960
  S        -4.6709977656       14.1046468112       39.7289558114
  C        -4.1725412287       17.2426814688       39.6350319329
  H        -4.2964213577       18.2247392197       39.2208496518
  H        -5.1237812935       16.9840991195       40.1317075945
  C        -2.9486556420       17.4322679342       40.4236265533
  H        -2.0659136233       16.9364357174       39.9686681438
  H        -2.7165732646       18.4466624155       40.4425754552
  H        -3.0896621561       17.1305347779       41.4859618278
