352
 i =    56100, time =    56100.000, E =        25.3475332105
  H        12.5547823957        5.1092948325       32.1059665065
  C        11.5415776812        5.4451251111       31.9702604046
  H        10.8492743991        4.6441135764       31.6622040365
  C        11.4280837353        6.3930768542       30.7693689563
  C        11.0098042103        5.9985073789       33.2801205884
  C        11.8599181849        5.6686985473       29.4438962522
  H        10.3968145304        6.7612003763       30.7187430678
  H        11.9741883712        7.3265208976       31.1014151849
  H         9.9267751527        6.1812753870       33.2189169604
  H        11.2404935852        5.2655703946       34.0210789981
  H        11.4894806651        6.9478659873       33.5316302703
  C        10.7498438649        5.0921375118       28.6609294566
  H        12.6091211691        4.9770516985       29.7945468079
  H        12.3630225350        6.3544464812       28.7989540435
  C        11.0175367818        4.9224886316       27.2264242147
  H        10.3864126867        4.1327192874       29.0559968424
  H         9.8366711103        5.7703230966       28.7988372421
  C         9.8164926197        4.3691014575       26.4925958109
  H        11.8577295720        4.1725290326       27.2500899776
  H        11.4764021092        5.8385026186       26.8637091461
  C         8.5078100749        5.2551620414       26.4540644197
  H        10.0972956661        4.1631728629       25.4991302775
  H         9.4679040272        3.4226508310       26.9338109030
  C         7.3170792805        4.6906707841       25.6091845389
  H         8.0627088171        5.5112625998       27.4606379118
  H         8.8729416689        6.2314266050       26.1936682008
  C         6.8911312925        3.3454492396       26.2750519066
  C         7.7126063368        4.0284541639       24.3700939774
  C         6.0737795959        5.6188671423       25.5899204014
  C         7.0826859396        2.2943596323       25.4224160320
  C         6.3258389257        2.9686340066       27.4822123393
  C         7.5934488937        2.6788619365       24.2040576216
  C         8.1058851978        4.7208786831       23.2496766885
  H         6.2930700544        6.4787197095       24.9394050610
  H         5.9429597037        6.1129419621       26.5917583838
  C         4.7698570756        4.9147225057       25.1597598484
  S         6.5555338061        0.7330834646       26.0973132198
  C         6.0840834078        1.6108109110       27.5684239687
  H         6.3348534063        3.7180988682       28.2728174783
  C         7.8308480919        2.0837958951       22.9512302794
  H         8.3296318674        5.7595744573       23.4103558041
  C         8.3884355078        4.1749800709       21.9932796535
  H         5.0231177491        4.4938680579       24.2134314397
  H         4.4952467667        4.0965873694       25.8643326223
  C         3.4678280649        5.7588546324       24.9182654700
  C         5.6413825702        1.0208889635       28.8944327708
  C         8.2218954101        2.8617719856       21.8609715754
  H         7.5302494622        1.0071540454       22.8511867209
  C         8.7420713711        4.5413968848       20.7003593465
  H         2.7779470902        5.3337508833       24.1984139584
  H         3.7543940991        6.7696551746       24.4573525276
  C         2.7201104668        6.0108621852       26.1824143145
  C         5.6464791472       -0.3743013094       29.2616621828
  C         5.2039726818        1.9023660696       29.9547432760
  C         8.6231992796        2.1687753433       20.5339262876
  C         8.9234403495        3.4860449686       19.8152183809
  S         9.1629141754        6.0239342860       19.9433234944
  H         2.0166899300        6.7888514606       25.8860793059
  H         3.3551629209        6.2803222362       26.9866267046
  C         1.8986649992        4.7587200895       26.5908152936
  N         6.0376614993       -1.4455711095       28.4134410528
  C         5.4114369351       -0.8558808603       30.5266569897
  C         4.9769541968        1.4627631266       31.2267961271
  H         4.9933725209        2.8936398192       29.6618745958
  C         7.5078360326        1.4051797362       19.7559938534
  C         9.8631662861        1.2950453058       20.6812851810
  C         9.3003087626        3.8796061867       18.5340180764
  C         9.4197592932        5.2506012105       18.4378926247
  H         1.1111527798        4.6514291244       25.8853148477
  H         2.4596880368        3.8366164559       26.6692309452
  C         1.1345844218        5.0228591501       27.9108021479
  S         6.0813499776       -2.7867195805       29.2144622254
  N         5.4489036307       -2.2647382785       30.6015222238
  C         5.1126478342        0.0232227663       31.5562834851
  H         4.5760683242        2.1394037918       32.0614937517
  H         7.5104250259        0.3190831853       20.0448381871
  H         7.8864695845        1.3633179090       18.7863299806
  C         6.1590193251        2.0418296530       19.5536321925
  H        10.0522931462        0.9599615820       19.6798678778
  H         9.6443859153        0.4179956491       21.3424982820
  C        11.1732933309        2.0170929679       21.1311214177
  H         9.6569974713        3.1556114913       17.8051204519
  C         9.7638727852        6.0809883021       17.1603132272
  H         0.5499880412        4.1153151878       28.1690994964
  H         0.4891890943        5.8681715887       27.7966822994
  C         2.0926008946        5.1871815674       29.1172283247
  C         4.7005743949       -0.5436777197       32.8062716032
  H         6.3017073951        3.0126623232       19.2312837677
  H         5.6902080671        2.1090118865       20.4863456421
  C         5.3051879376        1.4357680524       18.5005158704
  H        10.9792237978        2.2458258927       22.1886901616
  H        11.2111021374        2.9819579040       20.6514502741
  C        12.4112106162        1.1416530264       20.9592697485
  C         9.8257030338        7.4966073194       17.0522792699
  C        10.0090715890        5.3258942019       15.8591123408
  H         2.4892671645        4.1811328297       29.3088687312
  H         2.8310778850        6.0147103463       28.9783050934
  C         1.4137640978        5.6148398287       30.4054978949
  H         4.9221546874       -1.5863352358       32.8025818308
  C         4.5811590078       -0.0074728875       34.0956733249
  H         5.3244876490        0.3301313583       18.3671798850
  H         5.7215347753        1.7585776259       17.5431065351
  C         3.8308141079        1.9409802721       18.6178715905
  H        12.2602295701        0.2820587694       21.6267309440
  H        12.4293110465        0.7651140749       19.9320013364
  C        13.7542826751        1.8679309959       21.2899824784
  N         9.7003470224        8.4117880158       18.1097779283
  C        10.2089752611        8.1588598128       15.9144185220
  C        10.3000477254        5.9855397759       14.6980042145
  H        10.0464139912        4.2540762661       15.8682438531
  H         0.9450722073        4.9307215773       31.0933236704
  H         1.9318920036        6.3261808829       31.0095526596
  H         0.6800507216        6.2471333318       29.9668182000
  S         4.5447248704        1.6367550648       34.5937053471
  C         4.4536045545       -0.9404760396       35.2692273037
  H         3.9671294819        2.8129487180       19.2502373986
  H         3.3499164628        2.2802055202       17.7148185301
  C         3.0017437443        0.8378036984       19.1480703889
  H        13.6231384473        2.9266746895       21.1874589041
  H        14.5602252251        1.5209938718       20.6824265786
  C        14.1830179104        1.6074044752       22.7687298461
  S         9.6481297698        9.8939912958       17.5476856201
  N        10.0754990790        9.5370170172       16.0612568405
  C        10.4993701645        7.5035273572       14.7158314553
  H        10.5195648657        5.3732601578       13.8330903232
  C         4.0297009670        0.9964947466       36.1269049544
  N         4.1764156447       -0.3047710873       36.3919126445
  O         4.5335835018       -2.1650826201       35.1705887821
  H         2.1221216258        1.3173450560       19.6066642494
  H         3.4681859063        0.2399499421       19.9610260968
  C         2.3196728812        0.0324815176       17.9933860439
  H        13.4402191802        1.9929706718       23.5115438287
  H        14.2316792437        0.5190416017       22.9087547988
  C        15.5807013798        2.2039147737       23.0367739187
  C        10.8371667310        8.3028307347       13.6041871571
  S         3.7120585269        2.0493659452       37.5628671830
  C         4.1794404475       -1.0350658336       37.6882950883
  H         1.7110129798        0.7629785831       17.4431201257
  H         3.0994977051       -0.2499602781       17.3306846503
  C         1.2364232271       -0.9239275845       18.3895897757
  H        15.6246854033        2.2836543355       24.1333845966
  H        15.6281613329        3.2879126820       22.6617353372
  C        16.7625147096        1.5756847882       22.3204717467
  H        10.6455065841        9.3441257353       13.6805542627
  C        11.3190213352        7.9628933477       12.3782170159
  H         3.6581047052       -0.4500681489       38.4505950374
  H         3.6393680936       -2.0039400913       37.4852687920
  C         5.6360113896       -1.2200083324       38.1282239655
  H         0.2249565569       -0.4542516703       18.2882032896
  H         1.4849194161       -1.3440647152       19.3439514006
  C         1.3347717159       -2.0211150512       17.4003826601
  H        16.6913824985        0.5369459269       22.5830374250
  H        16.6502104657        1.4531116370       21.2055587530
  C        18.1362980228        2.1051460689       22.6089673140
  S        11.8831378114        6.4119226183       11.8956839360
  C        11.3701494117        9.0786172388       11.3701475593
  H         5.7619223509       -1.3114102454       39.1342837449
  H         6.1148196228       -2.0196601162       37.5791958818
  H         6.1609649432       -0.2374306487       37.8415471807
  H         2.3894863887       -2.3068967101       17.3365274099
  H         0.9863760326       -1.7081717240       16.4242522389
  H         0.8403708981       -2.9107104466       17.7001923732
  H        18.3267366252        3.0015701317       21.8808141352
  H        18.8511426527        1.3179249285       22.3362531813
  H        18.3824543177        2.3492483170       23.5625731886
  C        12.0519272082        7.2210713454       10.3380950740
  N        11.8662064011        8.5177941767       10.2317836019
  O        10.9397019406       10.2139026700       11.5499368524
  S        12.7562423388        6.4269444793        8.9423164114
  C        11.9235079888        9.3251909663        9.0000519225
  H        11.9894761135       10.3318896710        9.3215278669
  H        12.8720420409        9.1873298831        8.4644821328
  C        10.6628644578        9.0689572248        8.1068610747
  H        10.4369553900        9.9407773789        7.5308809455
  H        10.9760957099        8.3430378972        7.3755387168
  H         9.8451214187        8.6792712609        8.6939596993
  H        -1.4515631286       12.6853518553       17.0243271301
  C        -2.0879443951       13.5119154571       16.6063526548
  H        -1.3358150509       14.2282977690       16.1953955495
  C        -2.8114134551       14.2396163752       17.7799302005
  C        -2.9474455184       12.8632985490       15.4649470591
  C        -3.2723499388       13.2987233974       18.9631947124
  H        -2.1830245841       15.0259037619       18.2323701899
  H        -3.6293482249       14.8402836413       17.4719385954
  H        -2.4788493670       12.0114903655       14.9495469953
  H        -3.7820238137       12.3614873823       15.9032181982
  H        -3.1282640556       13.6201787439       14.7443187917
  C        -2.1516409538       12.7166282332       19.9164760393
  H        -3.8701512799       12.4830082465       18.4836840687
  H        -4.0245779453       13.9313422674       19.5177158972
  C        -2.4978816884       12.7655303042       21.4440391525
  H        -1.7559004958       11.6910130191       19.7473064086
  H        -1.3282156443       13.3951160340       19.8077083887
  C        -1.3592383094       12.1837227589       22.3072903074
  H        -3.3057677091       12.0901294515       21.6612804952
  H        -2.9316037771       13.7130096345       21.7037841024
  C        -0.2162458286       13.1629678353       22.4936117164
  H        -1.8035388636       11.9569674237       23.3461076953
  H        -1.0266955456       11.2019633561       21.9398417919
  C         0.8828664830       12.4906611145       23.4234359025
  H         0.2757303394       13.4099048037       21.5604005555
  H        -0.4960407990       14.1207850841       22.9984594707
  C         1.2615314934       11.1631436322       22.7274492419
  C         0.5275203059       11.7888216830       24.6990145916
  C         2.2024104629       13.3061006318       23.6698714496
  C         1.2252407704       10.1041830957       23.6255015082
  C         1.6186462459       10.7352522663       21.4174790855
  C         0.7589713403       10.4917387034       24.8803490898
  C         0.0334349001       12.5305883345       25.8194300150
  H         2.5760657828       13.6351022813       22.6814682926
  H         1.9730197743       14.2686368138       24.1410226414
  C         3.4224736233       12.5898011356       24.3278388984
  S         1.6509065873        8.6317308904       22.9421223700
  C         1.9199226932        9.4014482452       21.3878450687
  H         1.6618687010       11.4720246935       20.5866348947
  C         0.3034879171        9.9312938470       26.0562149205
  H        -0.1317854420       13.5573824214       25.5960010205
  C        -0.3278945017       12.0035472647       27.0021653467
  H         3.6872471425       11.7275259273       23.7416477692
  H         3.0847930571       12.1449929524       25.2320054713
  C         4.6481718665       13.5010562059       24.6968603393
  C         2.4898564977        8.7469979616       20.1632370402
  C        -0.1926559613       10.6849705904       27.1363817910
  H         0.3959626507        8.8823464990       26.1303270338
  C        -0.7438466733       12.4139904270       28.2460856745
  H         5.3801658900       12.9548964246       25.2227782681
  H         4.3735841661       14.2573703931       25.3826032915
  C         5.4012938519       14.0603187794       23.4399236730
  C         2.3461946771        7.3851164672       19.8030476484
  C         3.0661316374        9.6477930612       19.1300376074
  C        -0.5296156646       10.0281109736       28.4822039693
  C        -0.8449773267       11.3803609679       29.1438287727
  S        -1.1272821812       13.9441473985       28.8964895940
  H         6.1589675295       14.6483972725       23.9478420419
  H         4.7673853185       14.7420686687       22.8658524514
  C         6.1011723126       12.9689894496       22.5428920362
  N         1.8951970320        6.4344223999       20.6695153474
  C         2.7196984168        6.8874967004       18.5799896096
  C         3.3386257586        9.1033202660       17.8505791259
  H         3.4687065683       10.6486397806       19.2909347522
  C         0.5922299476        9.3005322844       29.1444911823
  C        -1.7830791883        9.0836594516       28.3383344539
  C        -1.0583561427       11.8467155985       30.4296510203
  C        -1.3511229500       13.1668285775       30.4682435082
  H         6.7883518456       12.2746942823       23.0007283721
  H         5.3480134908       12.2557091760       22.1509022971
  C         6.8968748651       13.6196741173       21.3817490048
  S         1.9713923085        4.9951182057       19.8663922124
  N         2.3616709345        5.5959220064       18.4012956468
  C         3.0973947725        7.6949694310       17.5065570990
  H         3.8031365268        9.6986226162       17.0452503511
  H         0.7409313148        8.3510279075       28.5771835131
  H         0.3461127200        9.0524460961       30.2157540635
  C         1.8896113755       10.0756103393       29.1471991079
  H        -1.5677363054        8.2590717354       27.7047299785
  H        -1.9959295836        8.5866495147       29.3275913170
  C        -3.0103747027        9.9422851147       28.0218822087
  H        -1.1245925458       11.1403038006       31.2408188066
  C        -1.6789244751       14.0409666965       31.6847132346
  H         7.9127104621       13.2140913975       21.3188986179
  H         7.0641077593       14.6389534282       21.5655844077
  C         6.1472354528       13.7117625072       20.0660345200
  C         3.3393390221        7.0987486843       16.2553116669
  H         2.2219022477       10.1731359711       28.1343460518
  H         1.7020616165       11.0836133987       29.4438795244
  C         2.8930113809        9.3089850083       29.9869403499
  H        -2.8131130070       10.8554985656       27.3375877940
  H        -3.3599749184       10.3579276611       28.9378103818
  C        -4.1846168451        9.1969262057       27.3132169151
  C        -1.8425871291       15.4654848307       31.7834401646
  C        -1.8103874749       13.4073602984       33.0277889446
  H         5.4068558357       12.8666716303       20.0324657016
  H         5.5123870255       14.5942972131       20.0627251730
  C         7.0174658421       13.5942021807       18.8145799812
  H         3.1876621591        6.0466344728       16.2141021905
  C         3.5546177333        7.5196333529       14.9734527009
  H         3.2275166827        8.3505257466       29.5128657944
  H         2.5475215576        8.9608152719       30.9842404909
  C         4.0909983710       10.1849129376       30.3024286800
  H        -3.7709520136        8.7065594674       26.4322778155
  H        -4.5669448413        8.4215231937       28.0417250832
  C        -5.3228024979       10.1793057408       26.9940847393
  N        -1.6764978538       16.4196007375       30.7505777976
  C        -2.1023122324       16.1015235011       33.0197937503
  C        -2.1653659125       14.0686590352       34.1869390204
  H        -1.6579780422       12.3708373038       33.1087141966
  H         7.8386377810       12.8538580603       18.9075216730
  H         6.3445488349       13.1724794150       18.0408308434
  H         7.5421731856       14.4928418321       18.5209800792
  S         3.9051552359        9.1739680371       14.4198330568
  C         3.6849367313        6.5376455160       13.8269963599
  H         4.3486994391       10.7063724246       29.3681247965
  H         3.8145270430       10.7996455070       31.1484368536
  C         5.3493997522        9.3327487173       30.6018068046
  H        -4.9041153011       11.0362653985       26.5293535791
  H        -5.7856136310       10.5384683687       27.9269751612
  C        -6.4274049909        9.4754119453       26.2409669393
  S        -1.6585383667       17.9156488463       31.3483431630
  N        -2.0902564341       17.5279467873       32.8710623387
  C        -2.3118723057       15.4836050219       34.2518829871
  H        -2.3368719670       13.3938267397       34.9681123188
  C         4.1542439761        8.4637929263       12.8103486522
  N         4.1628612252        7.1493689786       12.7175393974
  O         3.5162993923        5.3151869906       13.9962036493
  H         5.8371155303       10.0386752591       31.3171273260
  H         6.0002028491        9.2825143441       29.7787258333
  C         5.1813240316        7.9736666099       31.2530121508
  H        -6.0869292232        8.5449924674       25.7422913929
  H        -7.2336787218        9.1131855120       26.9506823436
  C        -7.1338336116       10.4965073637       25.4168884771
  C        -2.5779132876       16.1948031791       35.4523880929
  S         4.5225415973        9.4508200859       11.4486156845
  C         4.3971667857        6.4476670463       11.4414963309
  H         4.6091528251        8.0454317311       32.1032390736
  H         4.6859341707        7.2556114943       30.5643786815
  C         6.5072824036        7.1474860492       31.5504712049
  H        -6.5846172778       10.7555558988       24.5470623740
  H        -7.2312603034       11.5148548116       25.9541758039
  C        -8.5487264341       10.0714014474       24.9483258541
  H        -2.0305856236       17.0810033309       35.5395555832
  C        -3.0845877099       15.7507844677       36.7184318637
  H         4.9258800481        6.9233473022       10.6561982653
  H         4.8768052861        5.5218466294       11.6190422089
  C         3.0494886816        6.2341933606       10.8625416956
  H         6.2091966314        6.2522223976       32.1196891548
  H         7.2002006262        7.7639775909       32.1826689826
  C         7.2149100447        6.6881942854       30.3408105789
  H        -8.9172518699       10.6551227368       24.1311146049
  H        -8.6074827060        9.0292521145       24.5691744452
  C        -9.6058376267       10.1599701738       26.1271953019
  S        -3.6664654640       14.2060773741       37.1883074958
  C        -3.0982225893       16.7134617212       37.8653723652
  H         3.2560843118        5.9755758722        9.8473529688
  H         2.4944835547        5.3589415068       11.2383684746
  H         2.3615415962        7.0894310362       10.8887504868
  H         6.5377327174        6.5464069558       29.5202836520
  H         7.6697823883        5.7183524218       30.5235145299
  H         7.9144620540        7.4859533727       30.0844837941
  H       -10.6170449699       10.3102266486       25.8156936807
  H        -9.2837983320       11.0793221137       26.6228913857
  H        -9.7086588873        9.2877440895       26.7154809804
  C        -3.9535844236       14.8703563829       38.7981602392
  N        -3.5587071517       16.1434100263       38.9772719107
  O        -2.6178465773       17.8375788877       37.8598219054
  S        -4.3612064302       13.8029126043       40.1581554488
  C        -3.7575385193       16.8361850431       40.2709049703
  H        -4.1606317533       17.7847924141       40.0571774116
  H        -4.3846492103       16.2839745780       40.9688811419
  C        -2.4360366698       17.0433568531       41.0005067262
  H        -1.8777163713       17.8063380156       40.4532494293
  H        -2.6154029590       17.2982918682       42.0548309902
  H        -1.8821898970       16.1295922575       40.9598619326
