352
 i =    46500, time =    46500.000, E =        24.6492997377
  H        12.0773769904        7.1889014226       33.2026916399
  C        11.7885982245        6.3598919822       32.5906751048
  H        12.6982794551        5.9410655671       32.0888912251
  C        10.8364541114        6.7072585800       31.4120570782
  C        11.3569374132        5.2984017769       33.6137005466
  C        11.3832617812        6.1531337424       30.1253518178
  H         9.8606019231        6.3490856341       31.7188950950
  H        10.7953512671        7.7563357742       31.3129328283
  H        10.6588709759        4.6288017304       33.2218442784
  H        12.2696476465        4.7502284434       33.9940599912
  H        10.9063743531        5.7804216066       34.4593314415
  C        10.3178537541        6.1412112622       29.0263527831
  H        11.5574131555        5.1127855898       30.2741677704
  H        12.3135395915        6.5799006428       29.8937748880
  C        10.7755275690        6.1277283118       27.5533176539
  H         9.5826401695        5.4121955205       29.0886579836
  H         9.7561072698        7.0571434947       29.1577684116
  C         9.8210040924        5.3764452517       26.6367465256
  H        11.8166414740        5.6530672752       27.6691419834
  H        10.9255006749        7.1140557511       27.1069296332
  C         8.5786445444        6.2589343003       26.2584955557
  H        10.2409796403        5.0847718453       25.7281342357
  H         9.4644713845        4.3964680128       27.0324330656
  C         7.3215854834        5.5973361795       25.6719203231
  H         8.3796174537        6.7795036616       27.1279591685
  H         8.9840407694        6.9213437564       25.5856082429
  C         6.9031619079        4.2190369043       26.3701947764
  C         7.6695949085        4.7733297744       24.4592821472
  C         6.1121682683        6.5138093586       25.3517559739
  C         7.1591306166        3.0907163205       25.5876278554
  C         6.4499410287        3.8119383957       27.6628941614
  C         7.6483413079        3.4031564719       24.3340296276
  C         8.0575103146        5.4415748098       23.2852350992
  H         6.3957611848        7.2894551390       24.6498414319
  H         5.8832005926        7.0179951486       26.3236778638
  C         4.8795859211        5.7596759901       24.7870272120
  S         6.8037295081        1.5768115593       26.3657229276
  C         6.3064341223        2.4368033392       27.7317092768
  H         6.2394537174        4.5885405761       28.4104399244
  C         8.0724613054        2.7927109654       23.2209452692
  H         8.0848855644        6.5231160776       23.3320379703
  C         8.6047040575        4.7421822833       22.2581901550
  H         5.1427230283        5.8047218945       23.7794375742
  H         4.7778733547        4.7669471361       25.1095067218
  C         3.5558562336        6.5288508552       24.8468072081
  C         5.9267575421        1.7562150259       29.0039917297
  C         8.6792117703        3.4067114223       22.1477991828
  H         8.0469271741        1.7364948814       23.2374881480
  C         9.0329651118        5.1387231085       20.9812704793
  H         2.9235445257        6.0260171780       24.2078538760
  H         3.7182253419        7.5740952632       24.5048582932
  C         2.9169028288        6.7118543985       26.2398035275
  C         5.8620997265        0.3549441007       29.1795954567
  C         5.4775752100        2.6107722689       30.1945650112
  C         9.1168429607        2.7550763513       20.9040777058
  C         9.4095242870        4.0958232488       20.2194011180
  S         9.1169402103        6.5734958686       20.0536930879
  H         2.1091129721        7.4524942946       26.1295957800
  H         3.7206391100        6.9889707081       26.8791319700
  C         2.2981554823        5.4217836316       26.7660129036
  N         6.2693646639       -0.6853670745       28.3176323464
  C         5.4919052491       -0.1980751659       30.4483466492
  C         5.1392493455        2.0576333653       31.4754477965
  H         5.2668384112        3.6481706007       30.0507702441
  C         8.1205670369        1.9447870104       20.1269930210
  C        10.3775978290        1.9699978460       21.2340979913
  C         9.8675140696        4.4035282769       18.9461013926
  C         9.7325873013        5.7068386598       18.6466452953
  H         1.6912316764        5.0140177389       25.8787721943
  H         3.0594294400        4.6017927607       26.9735605927
  C         1.3856727624        5.5730234341       27.9880733041
  S         6.0850124626       -2.1165857735       29.0296298241
  N         5.5184840565       -1.6193448526       30.5138292252
  C         5.1771327537        0.5799640524       31.6013951131
  H         5.0200006562        2.7133103891       32.3597883889
  H         7.8904527509        1.0877924725       20.7541932999
  H         8.6432836086        1.4001073560       19.3232792074
  C         6.7854095202        2.6522196960       19.6724145862
  H        10.1566588208        1.0047332335       21.6201344328
  H        10.8965912441        2.4370350671       22.0410717079
  C        11.4152856090        1.8802947327       20.1293474843
  H        10.0886128863        3.6838393753       18.2087655528
  C         9.9426049023        6.3093517336       17.3115053365
  H         1.1017452312        4.6080226415       28.2898417328
  H         0.5737875872        6.2008391704       27.7435963737
  C         2.1311669092        6.0895888355       29.2363298706
  C         5.0839601246       -0.1108151285       32.8826186517
  H         7.1176457604        3.3250643219       18.8890649059
  H         6.4054657533        3.2285786655       20.4500340786
  C         5.7157679205        1.6054480220       19.3097170323
  H        11.8610457292        2.8724001925       19.8422532818
  H        11.0162402620        1.4692651963       19.1978766340
  C        12.6224053396        1.0176145866       20.5700493694
  C         9.7632193157        7.7169210123       17.0706685628
  C        10.0810171625        5.4830058368       16.1435723521
  H         3.0819811508        5.4975343076       29.3530708292
  H         2.2343729261        7.1435011374       28.9683236488
  C         1.2911284146        6.0822205064       30.4953111724
  H         5.2926411255       -1.1486689361       32.7940724363
  C         4.6181192910        0.2801349237       34.0880390635
  H         5.1335578692        1.5072087618       20.2308489627
  H         6.0857651592        0.6491442545       19.0613387439
  C         4.7316300018        2.1610041707       18.2287331135
  H        12.4438144286        0.6314412919       21.5318636576
  H        12.5495145828        0.2068527723       19.9081049200
  C        13.9467711410        1.7156668164       20.4868237294
  N         9.6375265198        8.6964608292       18.1146262126
  C         9.9879409584        8.3220262104       15.8002402140
  C        10.3108502998        6.0443609403       14.8945835192
  H        10.1410463955        4.4100750155       16.2429549762
  H         1.2178983471        5.0124671075       30.7906344032
  H         1.8562432616        6.5787513800       31.2410883080
  H         0.3187897594        6.4748566144       30.3641536512
  S         4.2699657944        1.8767620764       34.5351116529
  C         4.6734263308       -0.6434013945       35.2877748993
  H         4.3774977748        3.1415142493       18.7115710928
  H         5.1987274206        2.4212431975       17.2665108815
  C         3.4399608596        1.3266467108       18.1182229536
  H        14.0581997942        2.3202572939       19.5994581343
  H        14.8102224586        1.1290760429       20.6241306867
  C        14.0449882661        2.6969965076       21.7054985688
  S         9.7927978877       10.1784909948       17.3882510128
  N        10.0193467990        9.7216748264       15.8713692082
  C        10.3501640100        7.5317563234       14.6709983057
  H        10.5910415041        5.3474347104       14.0703806422
  C         4.0759621028        1.3865108378       36.1422884256
  N         4.3710695858        0.0883408969       36.3600686758
  O         5.1901367781       -1.7536488300       35.2278018361
  H         2.6787059390        1.9516962048       17.7462957067
  H         3.1691065326        1.2429203356       19.1171733979
  C         3.6112455181        0.0113073442       17.3540207224
  H        14.6231844204        3.5789560474       21.4467294576
  H        13.0966947034        3.1581647224       21.9199050268
  C        14.4714895122        1.9290582796       23.0022784901
  C        10.6526032707        8.2027539797       13.4683326323
  S         3.6501686813        2.3593019563       37.5572410186
  C         4.4613821852       -0.6546570231       37.6229803771
  H         4.1942361019        0.2430747380       16.4073044308
  H         4.3272141401       -0.6277147694       17.9167671729
  C         2.3330532033       -0.7916844413       17.0028927852
  H        14.4664187503        0.8499118046       22.7948521324
  H        13.7008106621        2.0226691842       23.7113446655
  C        15.8012966052        2.4211907321       23.5947952487
  H        10.0972457965        9.1199978137       13.3905639793
  C        11.2356367857        7.8414466778       12.2312278860
  H         3.6876502691       -0.1746348365       38.2338568586
  H         4.1904371474       -1.7268793878       37.5554796184
  C         5.8888010602       -0.6037624851       38.1736685824
  H         2.5470565015       -1.6379396525       16.3835245678
  H         1.6212269417       -0.2597171525       16.3660012823
  C         1.5067474861       -1.2248012538       18.1850516802
  H        15.7040323417        3.4799005323       23.8713584384
  H        16.0092307373        1.6920635106       24.3481567944
  C        16.9322515120        2.2390651551       22.6054747033
  S        11.8740207831        6.3323978243       11.8925889022
  C        11.2960149366        8.8940205205       11.2236730227
  H         6.1651864934        0.3106876899       38.6162016223
  H         6.0744084167       -1.4135717021       38.9583188433
  H         6.5591578087       -0.8485162322       37.3941949029
  H         1.0584642697       -0.3951672529       18.7347103626
  H         1.9156242593       -1.8969509826       18.8496724289
  H         0.6467925370       -1.7543460752       17.7593006871
  H        17.1284652064        1.1953106954       22.3466521816
  H        17.8869631433        2.5391663964       23.1281704480
  H        16.7829266595        2.8941747587       21.7308573727
  C        12.3603406211        7.0757842956       10.3670824172
  N        12.0060383337        8.3605174353       10.2603572994
  O        10.9793696161       10.0573523906       11.4192991517
  S        13.2476126200        6.2683241111        9.0629486013
  C        12.2220259785        9.2111153492        9.1752867442
  H        12.4639008637       10.2794334330        9.4330949452
  H        13.0926188229        8.8149351565        8.6794336282
  C        11.0949415485        9.1456677240        8.2361269025
  H        10.1269524277        9.0884409995        8.7033914307
  H        11.2889224845        9.9473613009        7.5102715721
  H        11.0948775955        8.2509129152        7.7043593989
  H        -1.8943429479       12.9474271587       17.3279737712
  C        -2.0843129149       13.8956098417       16.8026858751
  H        -1.1299743312       14.1845526342       16.4807801898
  C        -2.6257765112       14.7837529405       17.9220790807
  C        -3.1622054273       13.6199429026       15.7176884222
  C        -2.9969668478       13.9718950336       19.1712025752
  H        -1.9018444091       15.5292157014       18.1550139419
  H        -3.4208998886       15.4672434953       17.6972090835
  H        -3.1366228596       12.6177834144       15.4493082611
  H        -4.0800261528       13.8962578954       16.1475199915
  H        -2.8984440844       14.1602247292       14.8057002090
  C        -1.8911953032       13.6867906280       20.0915661795
  H        -3.2804726536       12.9882021151       18.9340831122
  H        -3.8014655447       14.4397355604       19.7173215481
  C        -2.4926699167       13.1422311808       21.3245650314
  H        -1.1834538736       12.9583409771       19.6549233732
  H        -1.3482126064       14.6328608441       20.2750756242
  C        -1.4367370066       12.6612556663       22.3675318728
  H        -3.3341505687       12.5214970067       21.1634284139
  H        -3.1012669381       13.9662620871       21.8117967462
  C        -0.2123678375       13.6137970382       22.6071771599
  H        -1.9484451543       12.3828102322       23.2933732312
  H        -1.1429420470       11.6892486608       21.9424869657
  C         0.9693467169       12.9402942874       23.3327500493
  H         0.1362470701       14.1907947501       21.7632237232
  H        -0.6137991841       14.4113784794       23.2197949054
  C         1.4368827229       11.6033288326       22.6135809391
  C         0.5998665875       12.1821149481       24.5392210439
  C         2.1505729225       13.8962991080       23.5617409455
  C         1.3017217852       10.4997776318       23.4265270957
  C         1.8926111010       11.2643793023       21.3231507341
  C         0.7364588264       10.8528147918       24.6494267103
  C         0.0800682793       12.8315165828       25.6077882477
  H         2.2277741098       14.6148722052       22.7008061903
  H         1.8959315498       14.5228268070       24.3917927716
  C         3.5006248230       13.2442534520       23.8251809653
  S         1.6232308999        9.0269092382       22.6226947680
  C         2.0950578281        9.9093254490       21.2355964185
  H         1.9771774094       12.0773854840       20.5994934727
  C         0.3303552056       10.2785951036       25.8441566766
  H        -0.1123586796       13.8597193303       25.6602479727
  C        -0.2709658565       12.2387948436       26.7685904739
  H         3.7616048120       12.5989004449       22.9866314199
  H         3.4206435326       12.6601558923       24.6857395975
  C         4.7427086533       14.1592124883       23.9450243947
  C         2.4244310632        9.2462583470       19.9461737472
  C        -0.1429621685       10.9236711786       26.9565594892
  H         0.3348717448        9.2512225705       25.9205667465
  C        -0.7046085712       12.7152207688       27.9863401342
  H         5.4664147221       13.5788218611       24.4914618892
  H         4.5846775927       15.0901468456       24.5429360770
  C         5.3355887068       14.6123562710       22.6021886182
  C         2.3709104701        7.8687015725       19.6624574690
  C         2.7329341102       10.1044937065       18.7953287486
  C        -0.5612414137       10.3173972584       28.2168998105
  C        -0.8934448897       11.6324042497       28.7932645480
  S        -1.0202542707       14.3372183087       28.6137291756
  H         5.9576017635       15.4902359681       22.6545453755
  H         4.5631072531       14.8602469925       21.8228278128
  C         6.3321997541       13.5543591864       22.0324609651
  N         2.1246382719        6.8196502269       20.6200834085
  C         2.6532872846        7.3914620599       18.3602144804
  C         2.8387722280        9.7101639577       17.4669395503
  H         2.6935252654       11.1841417508       18.9780175368
  C         0.5645903300        9.6452597143       29.0963422585
  C        -1.8134565148        9.4359897511       27.9717751462
  C        -1.3396231932       12.1283429877       30.0113034365
  C        -1.3855055663       13.5266088959       30.0683926445
  H         7.0935219077       13.2229500336       22.7525748458
  H         5.7034571238       12.7140641739       21.8301389071
  C         7.1273069924       13.9282422665       20.8353806064
  S         2.2907401746        5.4488468541       19.8475415152
  N         2.6685583515        6.0043116919       18.3302950109
  C         2.8068606694        8.1953674695       17.2361498550
  H         2.9376763819       10.4726386713       16.6512657715
  H         0.4676762358        8.5490751961       28.7171246946
  H         0.2401313988        9.5614182491       30.1516491541
  C         2.0412083223       10.1413516618       29.0582495532
  H        -1.4198646415        8.6763552326       27.3124775047
  H        -2.0883819695        9.0245858282       28.9241893013
  C        -3.0136358437       10.3052367747       27.4790964062
  H        -1.5358313023       11.4934507815       30.8196399936
  C        -1.5543353873       14.3629922538       31.3170889494
  H         8.2379784843       13.8688541656       20.8933653531
  H         7.0279196302       15.0087852143       20.7944040166
  C         6.6193237839       13.3330194351       19.5270257215
  C         2.9289641177        7.5543651388       15.9682037672
  H         2.6349094916        9.5128106069       28.3279318692
  H         2.0691107743       11.2219046477       28.7648340401
  C         2.7283436637       10.1156427445       30.4000864933
  H        -2.7814409572       10.9076252579       26.5900534792
  H        -3.3552731680       11.0421163351       28.1837588781
  C        -4.2615960161        9.4724593994       27.1965766508
  C        -1.5598615974       15.7761388184       31.4454938861
  C        -1.6478040882       13.6519512589       32.5893399607
  H         6.8794606115       14.0335025851       18.7179409733
  H         7.0838126906       12.3835499241       19.4632832223
  C         5.0692110030       13.1446096916       19.3956454481
  H         2.6061177887        6.5154551097       15.9384965967
  C         3.4370827189        8.0036477645       14.7352568077
  H         2.6434465578        9.0610762883       30.7886463102
  H         2.2789599563       10.7450769190       31.2427893615
  C         4.2286153321       10.5438402605       30.2628990484
  H        -4.0313363727        8.6264706633       26.6032719010
  H        -4.4766951867        9.1096103843       28.2206046367
  C        -5.3727384404       10.3433349363       26.5875020440
  N        -1.3349460189       16.5557272823       30.3594819070
  C        -1.7635315755       16.4575607336       32.6105307164
  C        -1.9040064785       14.2887415317       33.7766220401
  H        -1.5375951209       12.5747408262       32.4955253762
  H         4.7752715107       12.3156323072       20.0548764756
  H         4.4012871087       14.0328397459       19.5152419714
  H         4.8450370825       12.7069532530       18.4347092413
  S         3.7978679202        9.5904057035       14.2238163428
  C         3.5564769713        6.9814324885       13.6280200182
  H         4.5581469986       10.7675057965       29.2563419847
  H         4.2818594233       11.5633908879       30.6263673542
  C         5.2132646551        9.6759158872       31.0105695322
  H        -4.9006809567       10.8087372989       25.7769255928
  H        -5.6768784408       11.1247902298       27.3059448875
  C        -6.6265476293        9.6751185730       26.2192823528
  S        -1.3750244631       18.0667863273       30.8544003306
  N        -1.8628802000       17.7816973171       32.3975067085
  C        -2.0242647344       15.8071036604       33.8659604348
  H        -2.0141771922       13.7359729170       34.6680355172
  C         4.0665843822        8.9243070440       12.5986554714
  N         3.9708441296        7.5994562726       12.4996150237
  O         3.2342111509        5.8450364810       13.8713423043
  H         4.7879753497        9.1252218183       31.8206106429
  H         5.8262475860       10.3769607100       31.5546552576
  C         5.9726178592        8.6639851390       30.1105531110
  H        -6.6056243098        8.8357473175       25.5687173644
  H        -7.1363320681        9.2292644159       27.0429466287
  C        -7.4175552191       10.8285423929       25.4898417589
  C        -2.4601545310       16.5125802473       34.9916621184
  S         4.5830398506        9.9419003858       11.2384493809
  C         4.0027623804        6.8264130456       11.2565983303
  H         5.3065119913        8.1638631738       29.3862207236
  H         6.5787508247        9.2586310779       29.4705882248
  C         6.7758860176        7.5419809760       30.7884878480
  H        -6.8794473048       11.4193885096       24.7692182877
  H        -7.7975895645       11.5614682584       26.2397203688
  C        -8.6473154622       10.2372954580       24.8635989386
  H        -2.2102603086       17.5406697850       34.7864007302
  C        -2.9849665379       16.1841711486       36.1824299437
  H         4.7476918147        7.2848002197       10.6563381430
  H         4.4170669613        5.8361662611       11.4524560154
  C         2.6582465743        6.7524644653       10.5934720504
  H         7.2098344644        7.8789877829       31.6715128512
  H         7.6421549499        7.4382684408       30.1561657671
  C         5.9525806018        6.3301464305       30.9892813414
  H        -9.0334792549       10.8242842085       24.1023615981
  H        -8.3582968321        9.4092237975       24.3531516510
  C        -9.8664460378        9.9965970681       25.6717755380
  S        -3.4331730167       14.6083608131       36.8105595472
  C        -3.1263480843       17.2375891690       37.1847356295
  H         2.6980614293        6.9214748857        9.5478473755
  H         2.3321436707        5.7903482221       10.8273322265
  H         1.9233679418        7.4264116239       11.0325548090
  H         5.8023539647        5.8872842173       30.0116519859
  H         5.0456307936        6.5096794992       31.4676901718
  H         6.6033478927        5.6788557061       31.6051933409
  H       -10.5094266567        9.2900761654       25.1631892748
  H       -10.3683172400       10.9723370522       25.8070438320
  H        -9.6444378122        9.5417376979       26.5995997941
  C        -3.9203261226       15.3935088672       38.3074412421
  N        -3.7486964892       16.7410532402       38.3217206429
  O        -2.8731523704       18.4257853202       36.9375468734
  S        -4.4240042229       14.6248378093       39.8461800656
  C        -3.9392226497       17.6739568002       39.4565607571
  H        -4.4806632462       18.5593413796       39.0944916500
  H        -4.6830067001       17.2273536709       40.2023075714
  C        -2.5921051582       17.9813177800       40.0085441280
  H        -2.5951079851       17.9668758167       41.0861983113
  H        -1.8600449615       17.2253461647       39.6789919130
  H        -2.2727226103       18.9418750993       39.6555489528
