352
 i =    27400, time =    27400.000, E =        24.9052195251
  H        11.6713522699        6.9869378298       31.8233261958
  C        11.4362646035        5.9433167286       31.9568783583
  H        12.2178259419        5.2827151259       31.7137156472
  C        10.1452182509        5.6141468612       31.2092280638
  C        11.3583050617        5.6821522046       33.4428435631
  C        10.1577126325        6.1998282377       29.7371721006
  H        10.0263475070        4.5431694011       31.1772972899
  H         9.2449813315        5.9362834402       31.6711906929
  H        10.3401637786        5.6189589479       33.8573600049
  H        11.8653424766        4.6502817310       33.6010122192
  H        11.7786362085        6.5111934998       34.0221407659
  C        10.1684763823        5.1514848314       28.6249750510
  H        10.9428259676        6.9062058405       29.6867722145
  H         9.2307223354        6.7333536301       29.7055785138
  C        10.5970858292        5.5087331582       27.1848785117
  H        10.9300691473        4.4462926197       28.9479889113
  H         9.1892481707        4.6665763117       28.7552181498
  C         9.6101208077        5.0156769524       26.1238166321
  H        11.5667846418        5.0201425691       26.8758329636
  H        10.6519663751        6.5926253944       27.0063685179
  C         8.3074307777        5.7434397422       25.9244831697
  H        10.1705835167        5.0026327348       25.2061871542
  H         9.4849671720        3.9405049673       26.2321508772
  C         7.1783998102        4.9483539305       25.2676230117
  H         7.9347375963        6.0318121552       26.8890958172
  H         8.5005842838        6.6244877276       25.3563626068
  C         6.9654654597        3.6485089781       26.0135138291
  C         7.7253855734        4.2758240510       24.0371759307
  C         5.8972520078        5.7318592060       25.1157310599
  C         7.2119957639        2.5386588174       25.1437180976
  C         6.5744494274        3.2610756035       27.3034733321
  C         7.7328835048        2.9624095188       23.9037471176
  C         8.3108935607        4.9781964140       22.9585791257
  H         6.1354334818        6.6239143284       24.5685715754
  H         5.6127426936        6.0475011343       26.0723109842
  C         4.7321617958        5.0769736381       24.4767715538
  S         6.7149474657        1.0506284278       25.9003458757
  C         6.3322017595        1.9042496403       27.3690889905
  H         6.6103990438        3.9896060232       28.0823487422
  C         8.1718979558        2.3882016506       22.7594591248
  H         8.2504157163        6.0970218277       22.9685044748
  C         8.6613421440        4.3792910187       21.8105218484
  H         4.9936173392        4.9843179302       23.4890764271
  H         4.4142206168        4.0569880343       24.8890049522
  C         3.5078650088        6.0141956287       24.4990809577
  C         5.8335412370        1.2520359875       28.6034871427
  C         8.6911473942        3.0358683580       21.6711003739
  H         8.1396059075        1.2857772396       22.6936675549
  C         9.0979530208        4.8058410193       20.5796668695
  H         2.7593110630        5.5824305806       23.7247979734
  H         3.8147208977        6.9984476323       24.1706101299
  C         2.8373672874        6.1553543714       25.8861160116
  C         6.0212415110       -0.1313183847       28.9295176638
  C         5.1998608519        2.0608900133       29.6638292286
  C         9.1515859599        2.3793416335       20.4264030583
  C         9.3258169044        3.7359501929       19.7334227839
  S         9.3412505495        6.3417069274       19.8281308601
  H         1.8856484296        6.7273060228       25.9378762583
  H         3.5203446270        6.7441929214       26.4561208754
  C         2.4061365719        4.7080730705       26.4832980795
  N         6.5158787565       -1.1426145679       28.1404363338
  C         5.5283461547       -0.7050514808       30.0951241216
  C         4.9610883104        1.5424396592       30.8981261506
  H         5.0827025822        3.0931613841       29.5149579266
  C         8.1333207381        1.5207604723       19.5656335552
  C        10.4437813534        1.5849158577       20.6261633491
  C         9.6675410897        4.1790272103       18.3993616228
  C         9.7049877407        5.5760352514       18.3322437723
  H         1.6035703708        4.3002644762       26.0113556845
  H         3.2536325835        4.0108810996       26.5070128130
  C         1.8187054603        4.7568148340       27.8630512278
  S         6.1591826108       -2.6648535591       28.7390603327
  N         5.6117597259       -2.1054604787       30.1289900025
  C         5.0740882294        0.0839054738       31.1831320803
  H         4.8658416991        2.2346586227       31.7614116356
  H         7.7317125113        0.8394158555       20.2583323855
  H         8.6787499515        0.9822599916       18.7664892062
  C         7.0577642521        2.2628269783       18.8277860713
  H        10.7592135049        1.1278768080       19.6797275171
  H        10.2449704701        0.7249056779       21.2859807927
  C        11.5968741625        2.4085789144       21.2069412619
  H         9.8958503622        3.4944189330       17.6020235522
  C        10.0596732827        6.3950412800       17.1409537247
  H         1.8812783734        3.7610166810       28.3174287180
  H         0.7265130964        4.9825621413       27.8721812727
  C         2.4355030746        5.7999595033       28.7746884429
  C         4.8385899535       -0.5399385315       32.4508759196
  H         7.5357349035        2.7766710632       17.9791132887
  H         6.6215813490        2.9419501437       19.4429483053
  C         6.0232872341        1.1629522237       18.3392850401
  H        11.4024316516        2.5826504174       22.2964429610
  H        11.5274856677        3.3803913043       20.7855600243
  C        12.9514916342        1.7518252503       21.0077833976
  C        10.1229799623        7.8029930964       17.0091855898
  C        10.2450804290        5.6175281091       15.8022108499
  H         3.5150197826        5.6942179380       29.0054243409
  H         2.4619297296        6.7290319839       28.3449144323
  C         1.8261211474        5.8263518663       30.1890134676
  H         4.8549196235       -1.5889831752       32.3743497216
  C         4.5540535574       -0.1052942511       33.7328662038
  H         5.6213943721        0.5207800441       19.1485777923
  H         6.5007306760        0.3873998019       17.7762600899
  C         4.9522087373        1.7319134602       17.4049071140
  H        12.9767123511        1.2676091908       22.0078905814
  H        12.9811809624        1.0089181749       20.2163539222
  C        14.1632129304        2.7460533144       21.0367398831
  N         9.8596523523        8.7390989370       18.0363523867
  C        10.5309826279        8.4168977204       15.8555691314
  C        10.5580850225        6.3184714984       14.6250356682
  H        10.1492404073        4.5291185262       15.7275588037
  H         2.6844997686        5.5804480735       30.8322484340
  H         1.4730882706        6.8017673206       30.4978475430
  H         1.0746356218        5.1630730987       30.3404339688
  S         4.3789896195        1.5642422050       34.2844641136
  C         4.4492482230       -1.0816396775       34.8134782312
  H         4.9371818357        2.7991172705       17.3530820859
  H         5.2503724562        1.3751076225       16.3836710230
  C         3.5768030822        1.1673022002       17.7959068536
  H        13.9672917088        3.5178750396       20.2761311117
  H        14.9950514316        2.1513660745       20.6260699094
  C        14.6032378680        3.2650985840       22.4457462794
  S         9.8843200547       10.2113212549       17.3565145586
  N        10.5134528853        9.7851432663       15.9041964323
  C        10.7539469799        7.7798125768       14.6247860390
  H        10.6184423748        5.7724494324       13.6804711616
  C         4.3805979846        0.8908861935       35.9154095033
  N         4.3156027232       -0.4434116742       35.9679295636
  O         4.4959644393       -2.3063023692       34.7476992875
  H         2.8480381500        2.0137374597       17.6262386285
  H         3.4863572485        0.8726836910       18.8809676567
  C         3.3499710087       -0.1170511726       17.0704934597
  H        15.4644870837        3.9347589487       22.2876883457
  H        13.7377680967        3.8633824433       22.8179063992
  C        15.1216850620        2.0043377354       23.1338654701
  C        11.0623060981        8.5912215885       13.4966404407
  S         4.1761164794        1.7533516289       37.4357375867
  C         4.5502754759       -1.2187118004       37.1818098209
  H         3.2945177581        0.1278165643       16.0257848705
  H         4.2195564360       -0.7346543876       17.1932134072
  C         2.0191353375       -0.8366006024       17.3371565901
  H        14.9413176025        1.0485491682       22.5810418044
  H        14.6266467747        1.8768478056       24.0776250707
  C        16.5498513991        2.1342925967       23.5384937199
  H        10.6454807360        9.5660648309       13.5372774961
  C        11.5591889109        8.3079509401       12.2311329440
  H         3.9749635268       -0.7833971162       38.0883326975
  H         4.0654605438       -2.2402628048       37.0544921091
  C         6.0297986832       -1.5564607681       37.4444284203
  H         1.4201124111       -0.6509878639       16.4538942999
  H         1.5737123479       -0.4949929492       18.2730431794
  C         2.3749889964       -2.2350966462       17.4792649750
  H        16.7539626590        3.0468095461       24.0119535375
  H        16.9777938065        1.2672394376       24.0644684055
  C        17.3753816179        2.0628901686       22.2676943872
  S        12.1921052430        6.8209026102       11.6348277660
  C        11.6851247346        9.3839060851       11.2506784268
  H         6.5329442715       -0.9471313229       38.1875362372
  H         5.9958401094       -2.5934264505       37.7582589509
  H         6.5781095001       -1.6699336043       36.5042691729
  H         3.4165193092       -2.3276868336       17.9646431064
  H         2.5043553410       -2.6426545455       16.5158839130
  H         1.6478243306       -2.7538607672       18.0732459061
  H        18.4175331441        2.0328971704       22.5879814664
  H        17.2067802899        2.8047905401       21.4810038027
  H        17.3242753318        1.0521354802       21.8597206717
  C        12.3617700472        7.6166974968       10.0887834937
  N        12.1362430186        8.9394894487       10.1121889699
  O        11.2937886780       10.5631963049       11.4793263690
  S        13.4176774086        6.9782084482        8.7597059797
  C        12.1876874737        9.8730185989        8.9908957009
  H        12.5642420648       10.8370208379        9.2991860780
  H        12.8244428255        9.5138286629        8.1592521862
  C        10.8390291173       10.0501259505        8.3808030887
  H        10.0355862605       10.0091383593        9.1349070343
  H        10.7446110718       10.9692672701        7.8404228164
  H        10.6286357665        9.2273734450        7.7253584005
  H        -3.0059970258       15.4607890815       16.8313572505
  C        -3.0062617482       14.3146397649       16.7023295938
  H        -3.9653494412       13.9059391688       16.9378583181
  C        -1.9119293055       13.8483222056       17.6769610301
  C        -2.6917218505       13.9946313994       15.2524726533
  C        -1.9192382418       14.2544246351       19.1591356109
  H        -1.9250340111       12.7444281217       17.5504571877
  H        -0.9374965917       14.1819075736       17.2608175959
  H        -1.7333838307       14.4242825965       14.7790105566
  H        -2.6512787279       12.8847765089       15.1926769981
  H        -3.5172757045       14.2644935377       14.6019336179
  C        -1.8482881894       13.0746159229       20.1054976419
  H        -2.9344002271       14.7906692822       19.3694573489
  H        -1.1022967129       14.9414951226       19.4805038633
  C        -2.2176961992       13.4390501618       21.5219048692
  H        -2.6294705985       12.3924916259       19.7767256769
  H        -0.8656098677       12.6216334043       19.9953805991
  C        -1.2995158669       12.7832918198       22.5137980771
  H        -3.2781606424       13.1949819629       21.6344531002
  H        -2.1793569733       14.5023088537       21.5247912718
  C         0.0142821715       13.5769595204       22.7774943126
  H        -1.8096477078       12.6720255132       23.4572639172
  H        -0.9671119836       11.7663800328       22.2475629511
  C         1.1736969069       12.8463451529       23.5141862845
  H         0.4571548634       13.6076493972       21.7481207785
  H        -0.2017888680       14.5762292536       23.2053417357
  C         1.4908510537       11.5284855244       22.7950673323
  C         0.7635617616       12.0859242137       24.7089406885
  C         2.3712551684       13.7882325876       23.6244549883
  C         1.3318103900       10.4129591245       23.5505575172
  C         1.9935152179       11.2636584674       21.5146619454
  C         0.9133131487       10.7639207778       24.8246229510
  C         0.2425785969       12.7257059504       25.8226551927
  H         2.4476957254       14.3887530329       22.7641702079
  H         2.3040982649       14.4151283456       24.4838614267
  C         3.6290858615       13.0608956761       23.9278267412
  S         1.5835215836        8.9838518900       22.6470068183
  C         2.2357702238        9.9336977280       21.3214194577
  H         2.2900672336       12.0459852704       20.8852281886
  C         0.3928284926       10.1460551356       25.9691190007
  H         0.1549571592       13.7980708733       25.7535580916
  C        -0.1900989883       12.1409437260       26.9895213244
  H         3.8332403830       12.2901576356       23.1983154910
  H         3.5149469216       12.5524746303       24.8883657718
  C         4.8364440055       13.8585872516       23.8681294413
  C         2.6544549010        9.2531074752       20.0495337673
  C        -0.0997314809       10.8239978364       27.0713636569
  H         0.4568185829        9.0448088457       26.0968276917
  C        -0.7016722508       12.4805938397       28.1834996835
  H         5.5600976303       13.5261977043       24.5660363485
  H         4.6282063951       14.8574392810       24.2932068259
  C         5.3434049079       13.9838200824       22.4922673841
  C         2.6304076005        7.9159866445       19.6982974661
  C         3.0564782617       10.1473053719       18.9506552050
  C        -0.5693456883       10.0626499885       28.2503405574
  C        -0.9032098932       11.3651460178       28.9983333306
  S        -0.9901677090       13.9952467166       28.9296464894
  H         6.0042383291       14.9131894344       22.4130497159
  H         4.5261616603       14.1860431475       21.8538943536
  C         6.0227918148       12.7252932554       21.8920995675
  N         2.2880868253        6.9538918709       20.5982114118
  C         2.9517733153        7.4772906148       18.4048674917
  C         3.3289069198        9.7323433097       17.6731961211
  H         2.9966847828       11.1629553436       19.2100192529
  C         0.5863838274        9.2162551372       28.8060597198
  C        -1.8716878007        9.2977255933       27.9710826696
  C        -1.3050480733       11.7970833499       30.2820237751
  C        -1.4888801842       13.1629631523       30.4019107364
  H         6.4062808572       12.0656845163       22.6603335129
  H         5.1922225194       12.1750204192       21.4139540640
  C         7.1382612956       13.0434686116       20.9054254838
  S         2.3828838160        5.5461012370       19.8326890907
  N         2.8266684141        6.0953977205       18.3690432495
  C         3.2766145786        8.3020003166       17.3181910282
  H         3.6175212561       10.4655956846       16.9751873830
  H         1.0852415810        8.5612107978       28.1184308608
  H         0.1947840649        8.4873404406       29.5528615477
  C         1.6540574565       10.1342689653       29.4464207568
  H        -1.4339758765        8.6143598544       27.2337479263
  H        -2.2041374597        8.5549401072       28.7216094279
  C        -3.1519048068       10.0132835244       27.5327632592
  H        -1.4686714672       11.0718930261       31.0756883013
  C        -1.7637781384       13.8804475892       31.6839412066
  H         7.6092231168       12.0480693633       20.5974626638
  H         7.8125990168       13.6769095004       21.4059062056
  C         6.5961019174       13.8637060645       19.7105714060
  C         3.3227558420        7.7583551824       15.9991321290
  H         1.8794757320       10.9614649553       28.7582118609
  H         1.3369456695       10.5378687070       30.3546647810
  C         2.9618582440        9.4239222697       29.7023492309
  H        -3.0940705335       10.4541048482       26.5025218236
  H        -3.2386154289       10.9005525561       28.2142384330
  C        -4.4254399753        9.1882045412       27.8613381618
  C        -1.7749313061       15.2373008950       31.8411365747
  C        -2.0121547241       13.0525188049       32.8743029160
  H         5.6595519805       14.4049715899       19.9531068004
  H         7.3232009805       14.5635823428       19.4573345025
  C         6.3178887967       13.0517601640       18.4586498461
  H         3.1092735567        6.7085018073       15.8836749150
  C         3.7031242984        8.3145723024       14.7665546649
  H         3.6744222950        9.6412012051       28.9186199240
  H         3.0086418952        8.3311244652       29.7306504072
  C         3.7850701696        9.9281348889       30.9694787294
  H        -4.4185375497        8.2071364659       27.4208101941
  H        -4.5565847136        9.1490172751       28.9491106443
  C        -5.6847924357        9.9528392185       27.4622527687
  N        -1.7066146863       16.1778395627       30.8003211763
  C        -1.9989507128       15.8617276296       33.0679028486
  C        -2.1596916330       13.6317735676       34.1207406204
  H        -1.9756883290       11.9922442821       32.8931994970
  H         7.1902074374       12.5735126298       17.9797300629
  H         5.5365749319       12.3291508128       18.8034459497
  H         5.8504508610       13.5713863364       17.5846922647
  S         3.9909446835        9.9385069810       14.3318725172
  C         3.8872468682        7.3685480643       13.6328299715
  H         4.0821544250       10.9605339714       30.9801576028
  H         3.3745604295        9.7533950076       31.9821798326
  C         5.1543352337        9.2409361597       30.8665645400
  H        -5.3669834934       10.9946539916       27.5492665925
  H        -6.4591855949        9.6722549820       28.2082708563
  C        -6.2287687546        9.7352554025       26.0498444785
  S        -1.7027139054       17.6590092110       31.4233385143
  N        -2.0276539611       17.2541414767       32.9805194702
  C        -2.1359861067       15.1284727154       34.2436672627
  H        -2.3680229498       12.9435855668       34.8943726991
  C         4.5067960276        9.3533239589       12.7407322888
  N         4.4134660876        7.9761866966       12.5690225259
  O         3.6403187925        6.1725246595       13.6133629375
  H         5.8917280338        9.7738154308       31.4227308685
  H         5.4731904404        9.2094910066       29.8176983244
  C         5.1589714143        7.8609423734       31.4277952423
  H        -5.4786843746        9.7101297624       25.2852677839
  H        -6.6745379040        8.8171424452       26.0026632571
  C        -7.1393634586       10.8872371445       25.5522866463
  C        -2.4945769596       15.9175127176       35.4007823174
  S         4.7720372561       10.3919474918       11.4343598902
  C         4.4968169708        7.3238111356       11.2542464304
  H         5.7235749522        7.8986597733       32.3506776878
  H         4.1437005363        7.4382940221       31.7202026713
  C         5.8926696845        6.9138438772       30.4966010721
  H        -7.3334341889       10.6743988544       24.4923981196
  H        -6.6126380193       11.8050294946       25.5626355206
  C        -8.4705865343       10.9250231581       26.2916430199
  H        -2.1242697763       16.9269678998       35.3560730955
  C        -3.0525844750       15.6924096160       36.6382215814
  H         5.3796388040        7.6127518448       10.6309427053
  H         4.8882201398        6.2869754496       11.4439297368
  C         3.0624769861        7.2303229039       10.5990145708
  H         6.9696412788        7.2631483359       30.2747916537
  H         5.4461984790        6.9022871406       29.4707535196
  C         6.0764805685        5.4960771863       31.1387694539
  H        -8.4253040383       10.5960540873       27.3128091490
  H        -8.8115459228       11.9829496977       26.4200598661
  C        -9.4847957846        9.9631012041       25.6525613767
  S        -3.6814298177       14.1752240102       37.2480326289
  C        -3.0567521571       16.7770351805       37.6477026401
  H         2.3728903577        6.9502451173       11.3954656471
  H         2.9455942648        8.2103527440       10.2371450133
  H         3.0130783095        6.5258368956        9.7185386066
  H         5.1804463733        5.0614188139       31.5977383977
  H         6.8826462426        5.4620741898       31.8675613804
  H         6.4189311572        4.8513515087       30.3458440182
  H       -10.5317735159       10.2342385390       26.0151668277
  H        -9.2572619335        8.9065185574       25.7587125508
  H        -9.4784907139       10.1336648696       24.6082271938
  C        -4.0444165562       14.9962400305       38.7933193827
  N        -3.7273627384       16.3233251608       38.7042442497
  O        -2.5676354550       17.9374204588       37.4687886248
  S        -4.6965975381       14.2172354830       40.1583876373
  C        -3.8541650403       17.1580105456       39.9230684248
  H        -3.9714709979       18.2020444525       39.6053646029
  H        -4.7797961115       17.0183431380       40.5027083503
  C        -2.5385606518       17.1784236071       40.6788082737
  H        -2.5284358183       18.1117344311       41.2570387831
  H        -2.2772323014       16.2966555737       41.2838446874
  H        -1.8250512285       17.3905598620       39.8974373355
