352
 i =    47200, time =    47200.000, E =        24.5863804403
  H        10.2412513611        7.3700510833       33.1169725581
  C        10.7912885678        6.8896544149       32.3105019141
  H        11.7253903717        7.4108107124       32.0140030038
  C         9.8443548321        6.8248725576       31.0679286611
  C        11.0167295587        5.4981616335       32.7891017560
  C        10.4943508348        6.2863864312       29.8288095178
  H         8.9642545850        6.2981757118       31.3774122673
  H         9.3556790054        7.8102431835       30.9953815589
  H        10.3891720877        4.7396188525       32.2786105195
  H        11.9657702413        5.0890850486       32.7601086577
  H        10.6880952000        5.5066353426       33.8737094884
  C         9.4064783767        5.9302494512       28.7874276155
  H        10.9945070533        5.3915969596       30.1738166623
  H        11.2051448529        6.9993531319       29.3931441528
  C         9.8984725650        5.7760287445       27.3456353546
  H         9.1561349990        4.9790893373       29.2953575059
  H         8.5827423524        6.6488101337       28.9034480776
  C         8.9816402904        5.1030374360       26.3786346546
  H        10.8449973925        5.2497754009       27.4560833803
  H        10.1072564510        6.7335639180       26.9206055657
  C         7.7032189992        5.9194795165       26.0447633170
  H         9.5178233747        4.9538668332       25.5106999808
  H         8.6743587382        4.2054080566       26.8759662874
  C         6.7375180661        5.1185872909       25.1620803805
  H         7.1497983048        6.0826565656       26.9669456276
  H         8.0548756727        6.7992062202       25.5519245591
  C         6.4605394865        3.7185101057       25.8843692573
  C         7.3653910031        4.2453244106       24.0321542672
  C         5.4828950412        5.8808141739       24.6702775885
  C         6.8994037288        2.5828713942       25.2456706861
  C         5.9845284680        3.2938980021       27.1728390257
  C         7.3967744585        2.8814071240       23.9860961601
  C         7.8958116402        4.9230736863       22.9131119594
  H         5.7184004553        6.5211071828       23.8032452183
  H         5.3022643372        6.5728943611       25.3920765749
  C         4.2975150310        5.0298584884       24.3074167151
  S         6.5762934387        1.0604013606       26.1227502192
  C         6.0193359819        1.9823629744       27.4956681167
  H         5.8317718996        4.0977566753       27.8689552389
  C         7.8601741413        2.3125103178       22.8096901568
  H         7.7327089240        6.0019438095       22.9332929984
  C         8.1208293138        4.3962940613       21.7188381600
  H         4.3777102453        4.6665581414       23.2931892622
  H         4.2991610516        4.0957969726       24.9043774369
  C         2.9484531652        5.7914864977       24.4792069063
  C         5.7577439294        1.3701006141       28.8451315993
  C         8.1728577689        3.0708278606       21.6561312722
  H         7.9636661685        1.2293789774       22.8738511120
  C         8.5945041537        4.7885140652       20.4394059267
  H         2.2977728709        5.4124805890       23.6161650760
  H         3.1181994069        6.8245309788       24.2781210477
  C         2.2544190249        5.8643031410       25.7740834534
  C         5.7453371594       -0.0003031208       29.1719547058
  C         5.3616864474        2.2494234234       29.9496405367
  C         8.6179971825        2.3241027998       20.3810106375
  C         8.8898028905        3.7022850916       19.5968325250
  S         9.1453036655        6.2817439512       19.7129153512
  H         1.4660169150        6.6256555133       25.6405679277
  H         2.8802390893        6.2801658771       26.5334130406
  C         1.6859684445        4.5325211111       26.2092204567
  N         5.8976818915       -0.9890101490       28.1979801405
  C         5.5412842022       -0.4753554586       30.4591260732
  C         4.9548024765        1.7157986508       31.1725635299
  H         5.4449687012        3.3131982067       29.7893635543
  C         7.5571339652        1.4983511288       19.6367427687
  C         9.9820876436        1.5456183749       20.5611145766
  C         9.2594123647        4.1473278611       18.3213570938
  C         9.4363086884        5.5203326000       18.2239111384
  H         1.0565905812        4.1102287177       25.5040296007
  H         2.4882928879        3.9304026262       26.5295198764
  C         0.8699640121        4.5579650688       27.5665709850
  S         6.0373648366       -2.4256530765       28.9585149968
  N         5.7224632598       -1.8661323243       30.4441072924
  C         5.1873954474        0.3111118751       31.5763512542
  H         4.7016499087        2.4627225944       31.9542286202
  H         7.1569322383        0.7363107069       20.3328756635
  H         7.9243279609        0.9025959216       18.8105245760
  C         6.3547938209        2.2766069231       19.1118522653
  H        10.2955643186        1.0541609362       19.6208514033
  H         9.7259516326        0.6611362600       21.1793137365
  C        11.1291515708        2.3652846578       21.1335102294
  H         9.4363075136        3.4567762989       17.5231593349
  C         9.6540042866        6.2379405778       16.9554665962
  H         0.3849431247        3.5333294298       27.6827223466
  H         0.0271946613        5.2829526931       27.5063053377
  C         1.7235979084        5.0587388110       28.8034822049
  C         5.0120088487       -0.1804175040       32.8626573810
  H         6.7014040725        2.8408418240       18.3066996017
  H         5.9507596008        2.9451983743       19.8272989301
  C         5.3882865619        1.2898269061       18.5819498590
  H        10.8757293520        2.8094740966       22.1646215553
  H        11.2499589645        3.1656212020       20.4511005780
  C        12.5377402880        1.6753977620       21.0491183454
  C         9.8706588200        7.6054365048       16.8064040273
  C         9.8282332933        5.3239882517       15.7482388526
  H         2.6695301050        4.4492066888       28.8225524264
  H         1.9444071021        6.1216890359       28.7722878448
  C         0.9025234650        4.8128038068       30.1292544713
  H         5.3675448389       -1.1814825719       32.8428705653
  C         4.6925920355        0.3730633371       34.0708557709
  H         5.2629041540        0.4908582223       19.3091258531
  H         5.8882247221        0.8755180631       17.7221633301
  C         4.0785559813        1.8226073618       18.0422192905
  H        12.7377872827        0.8147116844       21.7066579346
  H        12.5998599331        1.2356105026       20.0315292313
  C        13.6852070768        2.6856276526       21.2301722132
  N         9.6561979062        8.5441772404       17.8234476162
  C        10.1421530345        8.1682166915       15.5495618273
  C        10.2316589592        5.8648288432       14.5294986700
  H         9.6468124375        4.2385516456       15.7347048575
  H         0.2713581742        3.9188894632       30.1353009243
  H         1.5731748598        4.8623154508       31.0521806018
  H         0.2570066556        5.7017414526       30.2430105956
  S         4.2255522925        1.9723204062       34.4444093228
  C         4.6922589938       -0.5588255262       35.2000669004
  H         3.7584698161        2.7029314444       18.4771136861
  H         4.3558350801        2.1318289318       17.0366168521
  C         2.9144136123        0.7300781687       18.0932291218
  H        13.5829054463        3.6884961366       20.7641837632
  H        14.5667106986        2.2770975321       20.7591752691
  C        14.1463332043        3.0216594048       22.6750374646
  S         9.6649180965       10.0345686266       17.0533878129
  N        10.2055821805        9.5972782603       15.5786746037
  C        10.3974231690        7.3700268869       14.3589240097
  H        10.4116874891        5.2069599702       13.7284214939
  C         4.2138411801        1.4402130097       36.1269526735
  N         4.2291613643        0.1092602403       36.2952675811
  O         4.9042698304       -1.7512077972       35.0460341580
  H         1.9633027051        1.2480548845       17.7091243519
  H         2.7382990491        0.5396044536       19.1815949217
  C         3.1122828560       -0.4637302378       17.1748383203
  H        14.6508912250        4.0405052804       22.6251377604
  H        13.2103740260        3.1604263792       23.2753589762
  C        15.0408145134        2.0200598643       23.3872252100
  C        10.7997211249        8.1466654160       13.2504267512
  S         3.6188842885        2.3963017012       37.4184757520
  C         4.1443175685       -0.5678798302       37.5735395637
  H         3.4026151114       -0.1901853508       16.1329909362
  H         3.9933770312       -0.9808688926       17.4640979030
  C         1.9862047112       -1.4575105302       17.1831696866
  H        14.9455082468        1.0446438122       22.8966104655
  H        14.6068304442        1.9147069012       24.3999188391
  C        16.5447217259        2.3459117027       23.4447617595
  H        10.4854411654        9.1101246812       13.1650226739
  C        11.4778695275        7.7493040876       12.1191087775
  H         3.4612274886       -0.0847957470       38.2933962657
  H         3.5972062596       -1.4976493762       37.3748256325
  C         5.5501854599       -0.8016833113       38.1936666170
  H         2.1239598651       -2.1742593965       16.3904421992
  H         1.0214603232       -1.0281212459       17.0179483475
  C         1.8780183632       -2.1903661062       18.5473547043
  H        16.6652114407        3.3015340766       23.9487307661
  H        17.0115207736        1.6005740713       24.1695872377
  C        17.3793494566        2.4686016055       22.1536047407
  S        12.2627424101        6.2072064617       11.9555190851
  C        11.6497552499        8.7275889265       11.0895635643
  H         6.0968501631        0.1490085840       38.2238114697
  H         5.3125271055       -1.1800708118       39.2078272252
  H         6.1521578100       -1.4875698189       37.6171404193
  H         1.6252372675       -1.5218252744       19.3347819199
  H         2.9448572291       -2.5892709226       18.6962709391
  H         1.2027029442       -3.0109034656       18.5580388261
  H        17.6445020704        1.4831956144       21.6794446674
  H        18.2055349383        3.0959416716       22.1376903933
  H        16.8038294767        2.9066454517       21.3359136036
  C        12.7328871085        6.8392081069       10.3759337349
  N        12.3326831174        8.1198944006       10.0989716873
  O        11.3037282507        9.8771702373       11.0893050475
  S        13.6815973213        5.9238578316        9.2807401290
  C        12.4974039334        8.7928567021        8.8198381049
  H        12.8162102032        9.7788683568        9.0242294357
  H        13.3309999920        8.2646260567        8.3307642581
  C        11.2022423703        8.7643745620        8.0043303653
  H        10.9159210016        9.7183425163        7.6336664172
  H        11.3338345682        8.1034021620        7.1714215749
  H        10.3240763186        8.5555454796        8.6518098679
  H        -1.9519158862       12.3278859256       16.9382896943
  C        -1.9674063732       13.3855510205       16.6251513532
  H        -0.8470848144       13.5788395117       16.4861108302
  C        -2.4820864054       14.3581202697       17.6668383118
  C        -2.5974877122       13.5672742817       15.2334530583
  C        -2.8882224796       13.7627062354       18.9442887737
  H        -1.7213029498       15.1129053986       17.9083027637
  H        -3.3409867053       14.9348588645       17.3074524765
  H        -3.1120164721       14.4474097101       15.1260022507
  H        -1.7679571506       13.5397960020       14.4934800522
  H        -3.2751670949       12.7307752691       14.8675304742
  C        -1.7005810654       13.6641698924       19.9684970667
  H        -3.2505081188       12.7346683869       18.7092217063
  H        -3.8727623532       14.1738213955       19.2796012701
  C        -2.2304466540       13.6447992987       21.4482395557
  H        -1.1580180395       12.6972382977       19.8562877449
  H        -0.9351446366       14.4539902245       19.8582579206
  C        -1.3060304844       12.8067860941       22.3685024813
  H        -3.2261140679       13.2590389651       21.4797933084
  H        -2.3558471293       14.6503596708       21.7614934993
  C        -0.1139675077       13.7112342902       22.7509068114
  H        -1.8561880404       12.5913373872       23.2510801217
  H        -1.0799349005       11.8733160227       21.8838525984
  C         1.0459269241       13.0022434855       23.4683511378
  H         0.2739117780       14.2757040844       21.8674396590
  H        -0.4308524740       14.4027200850       23.5049843467
  C         1.4330090478       11.7047214593       22.8238090290
  C         0.5838426748       12.3227402237       24.7237702134
  C         2.3198115032       13.8790915888       23.7606631557
  C         1.0572456825       10.6158377243       23.5932299421
  C         1.9269496631       11.3461831443       21.5631912897
  C         0.6057781730       10.9956124919       24.8765226249
  C         0.0402068891       12.9283885938       25.8732820988
  H         2.2909780073       14.6465575772       23.0630921953
  H         2.2058207342       14.3939144837       24.7140147242
  C         3.6273659727       13.1141680499       23.7664697529
  S         1.3343293876        9.1436063899       22.7243517606
  C         1.9817267936        9.9879159937       21.3486392253
  H         2.1994752825       12.1171496876       20.8260249081
  C         0.1887400780       10.4023018459       26.0291751706
  H        -0.1420636993       13.9624256911       25.7892096921
  C        -0.3089023474       12.3621323471       27.0591555910
  H         3.6988080144       12.6457638713       22.8038496451
  H         3.5630880397       12.4066108173       24.5420528151
  C         4.8892918847       14.0948718864       23.9948978896
  C         2.3774576172        9.2305601254       20.1154536127
  C        -0.3047733815       11.0413697245       27.1700123580
  H         0.2086468875        9.3112348461       25.9986075599
  C        -0.7085969319       12.7139067637       28.3142738452
  H         5.6178775172       13.7362990632       24.7521150963
  H         4.5871962243       15.0709318040       24.3792909106
  C         5.7075966584       14.2381327845       22.7065136657
  C         2.4419899657        7.8508984758       19.9572401827
  C         2.7688779715        9.9872105480       18.9022217970
  C        -0.6735223837       10.2632920731       28.3962289491
  C        -0.8928708308       11.5966207468       29.1129636364
  S        -1.0833419548       14.1700879752       29.1535230563
  H         6.4481389670       15.0247811218       23.0273884898
  H         4.9981126002       14.5468643118       21.8920615571
  C         6.5191963773       13.0093059651       22.3488028313
  N         2.1242585216        6.8733387536       20.9292025996
  C         2.7662865350        7.2446848458       18.7371914449
  C         2.9793067470        9.4361201533       17.6460606152
  H         2.6864939828       11.0490088650       18.8845515643
  C         0.4335329023        9.4461220776       29.0738158458
  C        -1.9200438072        9.3979231307       28.1386041898
  C        -1.1949674389       11.9101340001       30.4366958038
  C        -1.1315508058       13.2929094285       30.6607259399
  H         7.0423222531       12.5753302555       23.1578892060
  H         5.8871954605       12.2060883871       21.8506132769
  C         7.4751554769       13.4570773600       21.2211216988
  S         2.0811116991        5.4253642675       20.1756189412
  N         2.6638413707        5.8001252453       18.7596679492
  C         2.9260107610        7.9553178703       17.5246712427
  H         3.1641408362       10.0922133445       16.8674760552
  H         0.6704212749        8.7350541062       28.3823890829
  H         0.0671637059        8.8531597927       29.8670513583
  C         1.6481014443       10.2591102598       29.5446728514
  H        -1.7094986399        8.5195947403       27.5142064811
  H        -2.3559897799        9.1033529737       29.1032755113
  C        -2.9365916406       10.1973603357       27.3918796532
  H        -1.2098507454       11.1256350043       31.1629427022
  C        -1.4849059797       14.0376693594       31.9055933954
  H         8.5041044252       13.1181238149       21.4598203160
  H         7.4967240984       14.5557310930       21.1912319692
  C         7.1644652828       12.9148738263       19.8349001871
  C         3.1346587882        7.2724042937       16.2969262480
  H         2.1976249950       10.6897387280       28.6367998498
  H         1.3907563417       11.1401786159       30.1256757184
  C         2.7081058398        9.4177380995       30.3380709133
  H        -2.6439576760       10.4533447675       26.3613311739
  H        -3.0608002102       11.1809941632       27.8314356626
  C        -4.2769036996        9.5096999356       27.3533133528
  C        -1.6206825153       15.4497876253       32.0814030823
  C        -1.6590796049       13.3069669063       33.1976265582
  H         7.9328174380       13.3213535558       19.1807741344
  H         7.2387372681       11.8314813596       19.6913949020
  C         5.8060290925       13.3683888618       19.2613613035
  H         2.7785924747        6.2486424213       16.3296196359
  C         3.4347058995        7.6654413824       15.0245370608
  H         2.7964172723        8.4156982995       29.8569771252
  H         2.1802873028        9.1528116469       31.2008711950
  C         4.0762009535       10.0598969882       30.5866099661
  H        -4.1918234571        8.7786756390       26.5576423752
  H        -4.5545527857        8.9346175340       28.2589949751
  C        -5.4409656481       10.5450814056       27.0009970603
  N        -1.5572757978       16.4521155826       31.1299727052
  C        -1.9127128496       15.9965340498       33.3047309050
  C        -1.9627307467       13.8522262378       34.4278454005
  H        -1.4715630102       12.2371389355       33.1135001530
  H         5.0039655950       12.7847534437       19.6010458539
  H         5.5262912259       14.3592718807       19.5447877053
  H         5.8471565372       13.2495738004       18.1701391831
  S         3.7678790561        9.2268653109       14.5135407292
  C         3.5071837970        6.6361441886       13.9612039089
  H         4.5640662797       10.2490338112       29.6458473921
  H         3.9330847330       11.0091394169       31.0235854202
  C         4.9552397050        9.2494072659       31.5338778457
  H        -4.9378745212       11.1105732614       26.1902518297
  H        -5.5429943381       11.2445367284       27.8234576306
  C        -6.7832444349        9.9544790606       26.5976254559
  S        -1.3981599874       17.9148518323       31.9277589125
  N        -1.9228456705       17.3904073971       33.3299797819
  C        -2.1522394774       15.3052635623       34.5152140669
  H        -2.2207324852       13.1877601446       35.2645201488
  C         4.0170183728        8.5862088616       12.9235376639
  N         3.9017902637        7.2333542237       12.7799319020
  O         3.2479012918        5.4253826810       14.1859628219
  H         4.2967205868        8.7309478928       32.2748782585
  H         5.5772601890        9.8831303447       32.1917415812
  C         5.7284329139        8.2024015897       30.8105842510
  H        -6.5931592324        8.9619530111       26.1684405363
  H        -7.3580788809        9.8424301439       27.5613209107
  C        -7.4337973139       10.8191906066       25.5341252703
  C        -2.4922254779       16.0417522703       35.6957106894
  S         4.5200932532        9.5861126999       11.4755543122
  C         4.0792462609        6.5090568459       11.5309921346
  H         5.3080570714        8.2052296766       29.8297093665
  H         6.7638006804        8.4177065168       30.6938970056
  C         5.7962762052        6.7317743020       31.2939288197
  H        -6.7478027107       11.0787197510       24.7109003328
  H        -7.6485016499       11.7403959930       26.0483316022
  C        -8.6266022530       10.1021373369       24.8074881142
  H        -2.0043181891       17.0590373504       35.6752433099
  C        -3.2028378279       15.6895934268       36.8211002401
  H         5.0032063357        6.8391050915       11.0197259800
  H         4.1559221569        5.3947113113       11.6367364404
  C         2.9342143757        6.7527384291       10.6357539074
  H         6.3043171473        6.5870723176       32.2594124576
  H         6.4379449487        6.3012342536       30.6090613715
  C         4.4930481468        5.9184866699       31.2946383225
  H        -8.7725393048       10.5414708244       23.7985692447
  H        -8.5216994300        9.0380944270       24.5166173552
  C        -9.8896555578       10.3325983783       25.5780704215
  S        -3.9402352934       14.1691072275       37.1791841008
  C        -3.3350559864       16.7138476251       37.8810698258
  H         2.4272756366        5.8404786020       10.2233835381
  H         2.3035184083        7.5237547132       11.0337483884
  H         3.4538271504        7.1398406717        9.7163537488
  H         3.7778652216        6.3172843543       32.0738109728
  H         4.8449627628        4.8814500687       31.3508279816
  H         3.8516387507        5.9646293714       30.3989882287
  H       -10.6715193091        9.9673011925       24.9133721267
  H       -10.0917163118       11.3829316535       25.8265633787
  H        -9.8669746036        9.7205500411       26.5020772469
  C        -4.4164472941       14.8517230490       38.7256959420
  N        -3.8319661969       16.0359639939       38.9976486995
  O        -2.9308316484       17.8552480034       37.7773543199
  S        -5.3762819131       14.1114457054       39.9284469043
  C        -3.9861091035       16.7679486406       40.2348229941
  H        -4.8233179294       17.4552937518       40.1935864298
  H        -4.1485166009       16.0570527787       41.0324770921
  C        -2.7488255179       17.6324596603       40.6267010561
  H        -2.6031273260       17.4113569754       41.7226564686
  H        -1.8459369712       17.2367631145       40.2367696944
  H        -3.0508892813       18.6286903069       40.5114585010
