352
 i =    90600, time =    90600.000, E =        24.7483453479
  H        10.9421771553        6.9890537406       31.0295309004
  C        11.9040829172        6.4458552189       31.1101999368
  H        12.7000714368        7.1955159481       31.0990132337
  C        12.0225882216        5.4419370758       29.9910861117
  C        11.9277482993        5.7025986258       32.5167874651
  C        10.6310889182        4.7624365842       29.7877935169
  H        12.1936872242        5.9596115042       29.0787074398
  H        12.8471765043        4.7626777731       30.1226184015
  H        12.1189842715        6.4746596090       33.2797899446
  H        10.9403334884        5.2869105282       32.7686838191
  H        12.6534037866        4.9357140522       32.5614655825
  C         9.7714165421        5.5055089542       28.8052877752
  H        10.0393083223        4.5368780927       30.6614591260
  H        10.8308284557        3.8414668532       29.2844948245
  C        10.2174883222        5.4394092063       27.3272418715
  H         8.7239228743        5.2202005285       28.9447128996
  H         9.9203458199        6.5428392869       29.0307682901
  C         9.2065966764        4.6798214054       26.4447748017
  H        11.1835357154        4.8611489921       27.2406529112
  H        10.4495323668        6.4022661416       26.9969343475
  C         8.0630652207        5.6175298772       26.1380721458
  H         9.6335570021        4.2274814083       25.5834757446
  H         8.8688621619        3.9000667955       26.9716070121
  C         6.9675621818        4.8306549686       25.4064029594
  H         7.6549084783        6.1160181063       27.0288007599
  H         8.4939077454        6.3919047207       25.5420202486
  C         6.6476045341        3.4900707928       26.0805656396
  C         7.4051078035        4.1142033532       24.2021910566
  C         5.7022776122        5.6598427945       24.9921959240
  C         6.8425791110        2.4211236271       25.2375760558
  C         6.0253849434        3.1238749352       27.2774179826
  C         7.3752512212        2.7715065352       23.9931538591
  C         7.9733458432        4.7718397599       23.1105898087
  H         5.3674146748        5.1159793059       24.1991141024
  H         5.9943179450        6.5846472514       24.5702548451
  C         4.8105186740        6.0505430541       26.1094727334
  S         6.4703991797        0.9008813970       26.0640318576
  C         6.0009203407        1.7527192215       27.4772566765
  H         5.7827548813        3.8639139133       27.9565913061
  C         7.7594014360        2.1598547210       22.8177749809
  H         8.1032916853        5.8189897922       23.1366242504
  C         8.3258076211        4.1497490286       21.8919088645
  H         4.9628815725        5.4549925340       27.0181629156
  H         5.0102653789        7.0843325254       26.3213339128
  C         3.3817953715        5.9600756071       25.6681639738
  C         5.7474718887        1.0632309016       28.7802557607
  C         8.2780407876        2.8401588866       21.7181096308
  H         7.5271047940        1.0767797431       22.7961401925
  C         8.8178914997        4.5483491936       20.6887058875
  H         3.1277753244        4.9455168254       25.2815223334
  H         3.2726718626        6.6548719940       24.8510776669
  C         2.5034479175        6.3273940481       26.8780632371
  C         5.7396335105       -0.3517256661       29.0563074434
  C         5.1934084232        1.9437693902       29.9409611069
  C         8.8174531585        2.1147416705       20.4536435675
  C         9.1332412549        3.5008823454       19.8205121124
  S         9.2380683141        6.0768242028       19.9671964881
  H         1.5427600224        6.2811047034       26.5308356492
  H         2.7402527386        7.4052724181       27.1521155587
  C         2.5256686862        5.2612582657       28.0271094497
  N         5.9996372409       -1.3382398954       28.0808738926
  C         5.4828275455       -0.8536030509       30.3194926496
  C         4.9785312857        1.4106098476       31.2160373060
  H         5.0808250957        3.0114103073       29.8544562388
  C         7.5763808725        1.4188235804       19.7742847535
  C        10.0730813746        1.1962202218       20.7454863291
  C         9.7217389636        3.9500416121       18.6240285394
  C         9.7102375269        5.3274273663       18.4970638806
  H         2.9454309179        4.2613094981       27.7994675794
  H         3.2843858273        5.7357616929       28.6874177193
  C         1.1749493551        5.0277284256       28.7951875660
  S         5.9825837706       -2.8232828687       28.8032388863
  N         5.6719044988       -2.2874061792       30.3083914593
  C         5.0967497754       -0.0400657485       31.4313188504
  H         4.7705845413        2.0440000351       32.0165340548
  H         7.2358932534        0.5972668782       20.4591618693
  H         8.0831301816        0.9722260457       18.8630437251
  C         6.5018257935        2.3291573686       19.1666263331
  H        10.4296915921        0.9216094569       19.7473050776
  H         9.9258955632        0.3648727255       21.3717601374
  C        11.2468575050        1.9826625266       21.2690782561
  H        10.1584156666        3.1528184643       18.0088034802
  C        10.0556856061        6.0625903947       17.3153342998
  H         0.9682655089        4.0002971737       29.0781372377
  H         0.4151092397        5.4349674478       28.0994474639
  C         1.2036964189        5.7755737692       30.1580577503
  C         4.8767287504       -0.6973832311       32.6533443983
  H         6.6345432071        2.7258896199       18.1246187961
  H         6.2692840401        3.2113639069       19.7406275232
  C         5.1753402337        1.5666871001       19.0887171148
  H        10.9227312897        2.3534431017       22.2400966490
  H        11.4076089929        2.8851532229       20.6992274481
  C        12.5164916699        1.2312750771       21.5071784066
  C        10.0072059968        7.4173283340       17.1894325255
  C        10.2020509413        5.2580229305       16.0538429196
  H         1.6241256828        6.8255125412       30.0819928650
  H         0.1821313610        5.9623582400       30.4821227627
  C         1.9096828298        5.0136378457       31.3385586880
  H         4.9967768432       -1.7728151575       32.5052373300
  C         4.5447750467       -0.2247661484       33.8793277608
  H         4.6835759265        1.5260821564       20.0338999155
  H         5.3815869546        0.5778770544       18.8859240544
  C         4.2818371605        2.1338278973       18.0171337837
  H        12.3800313400        0.5139886639       22.3036678915
  H        12.7479660277        0.7283966535       20.6279912500
  C        13.5816076827        2.1317068882       21.9770505646
  N         9.6406467176        8.3194093450       18.2527897400
  C        10.2430752584        8.0534660477       16.0073156175
  C        10.4385376393        5.9121747618       14.8572493331
  H         9.9117889357        4.2270631038       15.9559145108
  H         2.2533636760        5.7607326613       31.9996041193
  H         1.2844662009        4.2985705826       31.7765072386
  H         2.7976370312        4.3915900590       31.0872648014
  S         4.1843744362        1.4194781443       34.4244185333
  C         4.6599717542       -1.2187989097       34.9675127647
  H         4.0653658346        3.1871287925       18.3231007518
  H         4.6919894449        2.1214706457       16.9739008987
  C         2.9455311162        1.4475925846       17.9727542342
  H        13.0680598190        2.9266950784       22.6575546491
  H        13.9349998280        2.6189188269       21.0553396266
  C        14.6835781942        1.3031663797       22.7688953510
  S         9.9027597591        9.8731458864       17.6588077800
  N        10.2866000438        9.4283157250       16.1114041054
  C        10.5332423650        7.3417998468       14.8137873328
  H        10.3630026044        5.2292876980       14.0745389773
  C         4.2138325903        0.7652164171       36.0607677822
  N         4.2441676792       -0.6076331425       36.0849690754
  O         4.8647218496       -2.4495904314       34.7788595843
  H         2.1136323688        2.0251954115       17.5684377655
  H         2.6431088112        1.5620424376       19.0061532413
  C         2.9052973914       -0.0212592048       17.6054022377
  H        14.2877224599        0.8231857659       23.6683850738
  H        15.2018645891        0.5924727285       22.0503865901
  C        15.5807936188        2.2864741252       23.3971583577
  C        10.8629409892        8.1571047122       13.6552633509
  S         3.7801770734        1.6470065549       37.5406805898
  C         4.3683591101       -1.4094441949       37.3126211763
  H         2.8487882073       -0.0585486856       16.4739979927
  H         3.7684555085       -0.4708351573       17.9939524035
  C         1.6515162660       -0.8495716979       17.9810892936
  H        15.0667672815        2.9703109527       24.0761932315
  H        15.9915105508        2.8357693672       22.5479853476
  C        16.7497088161        1.5978057266       24.0652695799
  H        10.5767363064        9.1827673179       13.7794671615
  C        11.2745811806        7.8875638960       12.3622885351
  H         3.6916344632       -0.8177732302       38.0127539531
  H         3.8135643689       -2.3389830959       37.1601605764
  C         5.8136769293       -1.4318329943       37.9660072285
  H         0.9185411182       -0.7506518300       17.1711824159
  H         1.2317608678       -0.4631865214       18.9265377884
  C         1.8865308667       -2.2917984616       18.1416183664
  H        16.9487433386        2.2119416852       24.9595731950
  H        16.5062813054        0.6347898534       24.4794316822
  C        18.0149566024        1.5362562335       23.1776120961
  S        11.6448338073        6.3670107084       11.6882835309
  C        11.3913649487        9.0297862611       11.3597381224
  H         5.6978200899       -1.1114563875       38.9992080574
  H         6.2462146485       -2.4351958549       38.1113909291
  H         6.5745741003       -0.7772881711       37.5742924534
  H         2.9595101472       -2.4943882654       18.3729324615
  H         1.4605164328       -2.7184194875       17.2059523877
  H         1.2924868236       -2.6519413963       18.9784421075
  H        18.7995632978        1.1733902588       23.7240186127
  H        18.1667221771        2.4922375592       22.6831648666
  H        17.8277947741        0.8665659166       22.4001661747
  C        12.0059282600        7.3199434607       10.1949663022
  N        11.8471411716        8.6538806862       10.1772874651
  O        11.2223138182       10.2202024949       11.6745606010
  S        12.6889253487        6.6449129752        8.6930912232
  C        11.9127266729        9.5199423461        9.0267950760
  H        12.2114553098       10.4645158842        9.3863730690
  H        12.6003579691        9.3223183159        8.2660296372
  C        10.4837685705        9.6306043902        8.3985279884
  H         9.7462173123        8.8743173252        8.7424702599
  H        10.0098638246       10.6196728769        8.4218463451
  H        10.4839159837        9.2780440422        7.3486329780
  H        -3.7888286832       12.8663622141       16.5522130151
  C        -2.6903027033       13.0775025479       16.5781307690
  H        -2.3258514029       12.1439256410       16.8736535679
  C        -2.2580693763       14.0191564988       17.7105236787
  C        -2.2183733875       13.4168453550       15.2335624775
  C        -3.0048523873       13.5166941115       18.9820494996
  H        -1.1932250916       13.8877209788       17.7771379070
  H        -2.5647063223       15.0504261228       17.5415372434
  H        -2.0023108970       12.4937277777       14.6328029362
  H        -2.9082156553       13.9867397073       14.5569506358
  H        -1.2673288687       13.9860899774       15.3267352433
  C        -1.9003735586       13.2072269193       20.0285308481
  H        -3.7210881573       12.7075664835       18.7912050823
  H        -3.5906863241       14.3212297089       19.4256779754
  C        -2.5423197636       12.8899216410       21.3794828138
  H        -1.4201984727       12.2314198429       19.7310223239
  H        -1.2490394677       14.0211128438       20.1336930311
  C        -1.5021582508       12.3475640987       22.4216596806
  H        -3.3280711279       12.1699718685       21.1934619850
  H        -2.8542795346       13.8383997464       21.8287193622
  C        -0.3654094337       13.4082441570       22.7440583454
  H        -2.0180383784       11.8946600533       23.2582412759
  H        -1.0096340510       11.6198013631       21.9035617621
  C         0.8289755587       12.8699913908       23.4493150682
  H        -0.1559627835       14.0327055948       21.8514911929
  H        -0.8137093338       14.1349160716       23.4907418969
  C         1.3565819105       11.5610098812       22.8074764390
  C         0.4681736725       12.1841520708       24.7492289996
  C         1.9668464406       13.8862516794       23.6056579603
  C         1.1932415897       10.4954236504       23.6482806094
  C         2.0014311593       11.1722294442       21.6029948856
  C         0.6766434595       10.8397969937       24.8036524069
  C        -0.0300022117       12.7622331974       25.9083931911
  H         2.1149332189       14.2832173145       22.5780572644
  H         1.7761752261       14.6854293346       24.2509786358
  C         3.3280970913       13.2231236045       24.0532522026
  S         1.6085039541        8.9826575620       22.8379354843
  C         2.2285386589        9.8138252639       21.4597366853
  H         2.2413810542       12.0100545179       20.8742480918
  C         0.4579496672       10.1648593480       25.9682758952
  H        -0.4341435101       13.7845668719       25.8082379125
  C        -0.2126382544       12.0878875198       27.0782466153
  H         3.5806468924       12.3758895675       23.4792136468
  H         3.2038188982       13.0195174471       25.1499646111
  C         4.5151859482       14.2677829792       24.0192643313
  C         2.6200996821        9.0796188597       20.2046133082
  C        -0.0755891293       10.7339869233       27.1527982826
  H         0.7190586845        9.1219185345       25.8779540918
  C        -0.6833820193       12.4103184937       28.3194213802
  H         5.3022352657       13.8773084269       24.6745115024
  H         4.2475273412       15.2959961810       24.3834032264
  C         5.1837505002       14.3792044831       22.5390796161
  C         2.3560082290        7.7766057676       19.9266932488
  C         3.1800662118        9.9128722095       19.0702574867
  C        -0.3761258482       10.0079160524       28.4138278971
  C        -0.8476924104       11.3012349231       29.1154622987
  S        -0.9976181392       13.8659809146       29.1051061834
  H         5.7136193965       15.3388432995       22.4330912152
  H         4.4962842578       14.2674666719       21.7952572762
  C         6.2770498522       13.2983026953       22.3381599688
  N         1.9153567883        6.7980868956       20.8534808346
  C         2.7160955084        7.2855016621       18.6836277111
  C         3.1979837452        9.3976015262       17.7856884901
  H         3.5315077679       10.9123435218       19.2075770474
  C         0.7396754035        9.2751743987       29.1988300181
  C        -1.5576157741        9.0213361042       28.2199295745
  C        -1.2766681228       11.6587499999       30.3919399693
  C        -1.4453454233       12.9958340770       30.5469774460
  H         7.0192280745       13.4711570556       23.0645505338
  H         5.7447144830       12.4120652218       22.6453618210
  C         6.9151277318       13.2785023624       20.9612832864
  S         2.0546184976        5.3804204155       20.0601164233
  N         2.5431973024        5.9301504918       18.5820166859
  C         2.9538284816        8.0309877449       17.4924895261
  H         3.7638681168        9.8518779470       17.0194300636
  H         1.1331182625        8.4381146853       28.7134636935
  H         0.3511899041        8.8539437552       30.0937871523
  C         1.9456414913       10.1544352792       29.5865764510
  H        -1.1728047857        8.4255566140       27.3318947518
  H        -1.6215345652        8.4050745783       29.1230357205
  C        -2.9416703381        9.5809827819       27.7978457422
  H        -1.2915024440       10.8961175844       31.1094380501
  C        -1.7800191520       13.7629828852       31.8044786268
  H         7.6357367717       12.4461166016       20.9433625799
  H         7.5257268587       14.2272018618       20.8539843737
  C         5.9089411373       12.9733421344       19.8035545883
  C         3.2665680058        7.3795499629       16.3000057934
  H         2.1980906851       10.8462349896       28.8636688605
  H         1.5691447598       10.6867569614       30.4617498416
  C         3.1643984095        9.3631143876       30.0448630988
  H        -2.7559027246       10.2842408937       26.9802345188
  H        -3.3264870434       10.1947429378       28.6024241462
  C        -3.8889420696        8.4533890930       27.4967172466
  C        -1.7301016011       15.1667451506       31.9915410127
  C        -1.8790334371       12.9644402297       33.0139110656
  H         5.5548050102       11.9809750119       19.7858407850
  H         4.9880681077       13.5715407416       19.7777236062
  C         6.5455180531       13.1545447003       18.4877117851
  H         3.3503439806        6.3318232778       16.3461180031
  C         3.5564595625        7.8594596749       15.0443228142
  H         3.3200262703        8.5741851863       29.3687635514
  H         2.8609869282        8.8295249252       30.9355478559
  C         4.4067685051       10.2487263893       30.2194169417
  H        -3.4987964495        7.8657303446       26.6342223703
  H        -3.8266927840        7.7806199887       28.3112393692
  C        -5.3721092365        8.8537841665       27.3155969761
  N        -1.5192060361       16.1333590106       31.0006259617
  C        -2.0156637020       15.7519832965       33.1780665196
  C        -2.1577390780       13.5507975189       34.2693430370
  H        -1.7179027867       11.8845244722       32.8657852250
  H         6.7358417715       12.1894442136       18.1062036319
  H         5.9878159565       13.7091761540       17.7789786858
  H         7.4786907153       13.7502907755       18.5541790069
  S         3.6946966666        9.5392583012       14.5173502740
  C         3.7433237908        6.8873843195       13.9370992416
  H         4.4923652597       10.6542728112       29.1796910461
  H         4.2547169327       11.0677721498       30.9200609137
  C         5.6279756638        9.4165203327       30.5776394274
  H        -5.6693439005        9.6532529735       28.0906500864
  H        -5.9855817058        8.0148680180       27.6341343078
  C        -5.6674061864        9.4602069533       25.9231676304
  S        -1.7964885604       17.6471918605       31.5120660342
  N        -1.9711506317       17.1918589307       33.1170596126
  C        -2.2387117906       15.0463760269       34.3398473213
  H        -2.3721465359       12.8654582805       35.0635679985
  C         3.9269555953        8.8510426888       12.9020441811
  N         3.9500578552        7.5268954838       12.8146033677
  O         3.6024863868        5.6756932777       14.1284900929
  H         5.5329144708        9.1798575437       31.6352151153
  H         6.5053803027       10.0810381522       30.5564741912
  C         5.9057343640        8.1737656895       29.7967074716
  H        -5.0145407326       10.3439277945       25.8426215507
  H        -5.4351774902        8.9027558153       25.0086871455
  C        -6.9859351014       10.2213711435       25.9859475936
  C        -2.5469354220       15.7564122331       35.5512990544
  S         4.2224316184        9.7351414543       11.4241040602
  C         3.8244121980        6.7210667676       11.6082830082
  H         5.5363436162        8.2573745296       28.7602238573
  H         6.9837487410        7.9890705938       29.6389390716
  C         5.3815324194        6.8697219346       30.4713218969
  H        -6.8967696837       10.9471764947       25.1643584731
  H        -7.0611350955       10.8354675523       26.8268623335
  C        -8.1953175772        9.3016933525       25.7239777184
  H        -2.3988124459       16.8032850189       35.5201059530
  C        -3.0555507688       15.3826105797       36.7840792820
  H         4.4912337497        6.9764019948       10.7767941274
  H         4.1232087851        5.7032691795       11.8292692767
  C         2.3951312551        6.5258013774       11.1237876569
  H         5.5644825497        5.9570834200       29.8280118384
  H         4.3386254099        6.9221136307       30.6303376815
  C         5.9237125840        6.6260254250       31.8886256715
  H        -7.9997342184        8.6424300218       24.8639980756
  H        -8.3347421496        8.5882312194       26.5572394850
  C        -9.6444308285        9.8764625592       25.4097412959
  S        -3.4855672264       13.8461562926       37.2094011800
  C        -3.3612583381       16.5054921738       37.7095296416
  H         1.9511728044        7.4592519006       10.7777224689
  H         2.3505245992        5.8557478181       10.2570451593
  H         1.8026171494        6.0310607225       11.8432546062
  H         5.4368938530        5.6399225967       32.1903738868
  H         5.5206389707        7.2207325165       32.6632458538
  H         6.9489986584        6.6265564067       32.0963140134
  H       -10.0642605417       10.4372480745       26.3010168990
  H       -10.4652934148        9.1656598817       25.1151134959
  H        -9.5743460812       10.5894546312       24.6305903196
  C        -3.8800648897       14.6001007931       38.8000113685
  N        -3.9102065935       15.9247385290       38.7864157902
  O        -3.1371951619       17.7169642261       37.4916149956
  S        -4.4032789472       13.5749103323       40.1747289058
  C        -4.2241149385       16.7009919524       39.9704123831
  H        -4.4944268376       17.6324688378       39.5453470137
  H        -5.0134620746       16.2045740456       40.4813926925
  C        -3.0196781412       16.8608999364       40.8694235694
  H        -2.1818842045       17.2119112124       40.2780206008
  H        -3.1970554728       17.7008708169       41.5546461147
  H        -2.6262895048       15.9312288184       41.3172590451
