352
 i =    17200, time =    17200.000, E =        24.7290571701
  H        12.3176286511        6.6861549212       31.9941582738
  C        11.5724799755        5.9198425437       32.1916656160
  H        12.2036832868        5.0988039570       32.4083176876
  C        10.6665365563        5.6606532263       30.9686505302
  C        10.7929474056        6.3753762454       33.4315192369
  C        11.2820018206        6.0093794791       29.5804628224
  H        10.3686371201        4.6458993346       30.8845888626
  H         9.7540200434        6.2983998272       31.1894564594
  H        11.4614546913        6.9033037457       34.1137862851
  H         9.9009945609        6.9576624983       33.2211640128
  H        10.6300142400        5.3984351273       33.9084631298
  C        10.1978412684        5.9403879782       28.5361416203
  H        12.1225940215        5.4164259925       29.1812315469
  H        11.6133120905        7.0273221027       29.7189099981
  C        10.7085811885        5.9554857548       27.1305938851
  H         9.5488754630        5.0059366199       28.6871466391
  H         9.6155645455        6.8613336899       28.6384156667
  C         9.7516823504        5.5010252506       26.0801749765
  H        11.6031590206        5.3392521050       27.0106577793
  H        11.1411600451        6.9149098150       26.9304177758
  C         8.4825472693        6.2808622729       25.8535353402
  H        10.2789959435        5.5228395984       25.1330350007
  H         9.4768850597        4.5304658433       26.3574090791
  C         7.3537904749        5.4922518229       25.1673902698
  H         8.0918958009        6.6953133103       26.7637163551
  H         8.7390325988        7.2134046206       25.3228656400
  C         6.9999503873        4.1854615512       25.8492144473
  C         7.8257078694        4.6672631941       23.9894275651
  C         5.9923954169        6.2812712347       24.9892275863
  C         7.2166021529        3.0584524633       25.0877936523
  C         6.4778080281        3.8774236189       27.1146251838
  C         7.7386806143        3.3478337138       23.8763309499
  C         8.2688847275        5.2972201607       22.8204316695
  H         6.1063419842        6.9551337386       24.1567965141
  H         5.8154665497        6.9324219643       25.8628329609
  C         4.8418174377        5.4656187322       24.5244904126
  S         6.8782585611        1.6194723764       25.9551809132
  C         6.2854126446        2.5223991901       27.3106690552
  H         6.2553657796        4.6334861031       27.8505027077
  C         8.1292450887        2.6780516761       22.7412194041
  H         8.1938691586        6.3588117838       22.8152982351
  C         8.5930771413        4.6833968974       21.6082637472
  H         5.0809554226        4.9053922470       23.6424170404
  H         4.7162910631        4.6088303064       25.2599836587
  C         3.5546478675        6.2489840116       24.4315316070
  C         5.8743264442        1.8716633803       28.5795762512
  C         8.5476381211        3.2945853512       21.5668941927
  H         8.0573746809        1.6399530416       22.6070042422
  C         9.0250640705        4.9558141241       20.3632347389
  H         2.8122138449        5.8877788758       23.6749859674
  H         3.8470711152        7.2855311820       24.1067934474
  C         2.8233698713        6.4691745414       25.7835114111
  C         5.7923313255        0.4599445526       28.7295739048
  C         5.5639115863        2.6973531595       29.7547095082
  C         8.9076289685        2.5205041268       20.3303583295
  C         9.1113906901        3.8229256775       19.5618280189
  S         9.4352947080        6.4071897866       19.5300532354
  H         2.0959533519        7.3195493534       25.7779047160
  H         3.5759032019        6.7958979048       26.5542015556
  C         2.1968730993        5.2283123404       26.3756941346
  N         6.0156706511       -0.5274410089       27.7683491095
  C         5.4529469364       -0.1098618231       29.9433769201
  C         5.3033640051        2.1762086247       30.9753585540
  H         5.4938266711        3.7582448470       29.5865599873
  C         7.6903616592        1.7018031712       19.8382494570
  C        10.2134993622        1.6374157980       20.4689218556
  C         9.3181309275        4.1379018397       18.2262679501
  C         9.5483390869        5.4631049495       18.0553095583
  H         1.4425303595        4.7409392705       25.7476245767
  H         2.9581933444        4.5093089596       26.5701658230
  C         1.6633721547        5.5366728746       27.7876347292
  S         6.0305697269       -1.9641389287       28.4145778684
  N         5.6036019479       -1.5176945024       29.8903388286
  C         5.1438320955        0.6690059820       31.1348587845
  H         5.1051586719        2.8377832679       31.7429722844
  H         7.4199702257        0.9773039633       20.6041519906
  H         8.1459440644        1.1465637210       18.9509850668
  C         6.4566936556        2.4604682258       19.3999888191
  H        10.4655450966        1.3299379010       19.4466411506
  H        10.0015059809        0.8628952408       21.2081161066
  C        11.4611743383        2.4394491685       20.9643361660
  H         9.3184146670        3.3830335981       17.5456270370
  C        10.0103738969        6.1937493168       16.8060588766
  H         0.9255260205        4.7323738530       28.0464660811
  H         1.0252602117        6.4048556898       28.0023107491
  C         2.7240695150        5.3550428949       28.9121823202
  C         4.9782578376       -0.0503060112       32.4266413101
  H         6.7468217627        3.1486907254       18.5912721198
  H         6.0803624008        2.8996945381       20.3460839821
  C         5.3783983053        1.5689905027       18.7915357845
  H        11.3690735343        2.6913640199       22.0047473581
  H        11.5394677575        3.4411022702       20.4855092061
  C        12.7564928740        1.6727409508       20.8457253194
  C        10.1491190499        7.6528816393       16.6762408141
  C        10.2508731839        5.4074667564       15.5774676287
  H         3.0591255560        4.3161403601       29.0108852708
  H         3.6158354327        5.8648616756       28.6255508848
  C         2.1477146367        5.7199701853       30.3034959063
  H         5.1831805149       -1.1098844049       32.2802603351
  C         4.6697853471        0.3138327511       33.7007109482
  H         5.0217590494        0.9258722822       19.6017450635
  H         5.8495008398        0.8610020036       18.1182146120
  C         4.2551508598        2.3382820126       18.0277883021
  H        12.7030206145        0.9317174446       21.6279492605
  H        12.9495064676        1.1862914984       19.9055924591
  C        13.9563761626        2.6097224201       21.2094432598
  N         9.8837974715        8.6220746769       17.6673117762
  C        10.4071259850        8.2308366652       15.4118774526
  C        10.5471889058        6.0558810536       14.3962591641
  H        10.1927357781        4.3835029126       15.5982223808
  H         1.1754684847        6.1558608175       30.1516790371
  H         1.9913964716        4.8730506939       30.9938754827
  H         2.8088532926        6.3538281764       30.8453758946
  S         4.4120957581        1.8861571343       34.3184546479
  C         4.5631653342       -0.7352938218       34.7523216245
  H         4.3112076673        3.3422488078       18.2938287543
  H         4.4692165102        2.3037937940       17.0057574892
  C         2.7791997863        1.9133344259       18.3439539654
  H        13.7923769112        3.5911410263       20.9035344586
  H        14.8905266474        2.2742010537       20.7233988263
  C        14.3438570108        2.7983573077       22.7005096075
  S        10.0568616810       10.0793931152       17.0232822598
  N        10.4099761202        9.6292901161       15.5015923318
  C        10.6213851921        7.5292227297       14.2664294662
  H        10.6174600056        5.4691719604       13.4985889620
  C         4.0230373157        1.0912327106       35.8686182313
  N         4.1586199825       -0.2195224117       35.9043392171
  O         4.9346370378       -1.9403488859       34.6794910973
  H         2.2325722053        2.6702751072       17.9560315189
  H         2.6889417933        1.8596259909       19.4087969875
  C         2.3639228845        0.7384309808       17.4765474217
  H        14.8857676558        3.7644937566       22.8048669056
  H        13.4740591118        2.8033136600       23.2943264737
  C        15.0902039306        1.6649208038       23.2331050977
  C        10.7597468868        8.3070602055       13.1114243575
  S         3.7282032215        1.8688215765       37.4131881253
  C         3.9399421275       -1.0479113087       37.1212671620
  H         1.6303676184        1.1977896971       16.9147496492
  H         3.1913513434        0.3804823347       16.8321395083
  C         1.9078158994       -0.3852342656       18.3709332663
  H        15.3780451961        1.0359152072       22.4057474866
  H        14.4805846821        1.0699783204       23.9415303218
  C        16.3848606255        2.1350853450       23.8865976816
  H        10.1821986442        9.2234965504       13.0248753779
  C        11.4542120729        8.0486886027       11.9364691146
  H         3.1849996703       -0.5571959394       37.7547433841
  H         3.3551704016       -1.8454312973       36.6813096599
  C         5.2320754866       -1.4426599809       37.8716694141
  H         1.1674230472       -0.0905210694       19.0223420895
  H         2.7448920113       -0.6295245548       18.9642142608
  C         1.6392061859       -1.7391329963       17.6485143135
  H        16.3435852300        2.9973394932       24.5558267171
  H        16.7397386860        1.2996949275       24.4569939834
  C        17.5244887885        2.3984868198       22.8767576177
  S        12.5056227984        6.6854633900       11.6445419058
  C        11.3172692963        9.0146931855       10.8186271789
  H         5.9808307023       -1.7454722326       37.0764356218
  H         5.7809568922       -0.5942801959       38.3619699774
  H         5.0851073660       -2.1301712409       38.6386058440
  H         1.3449606125       -2.6357090541       18.2504639716
  H         2.4940377065       -1.8567788093       17.0376546438
  H         0.8007028766       -1.5067594613       16.9540293779
  H        18.4363227584        2.7384430811       23.4436410290
  H        17.2947375322        3.2007021000       22.1780688878
  H        17.8677740088        1.5470593578       22.3402376497
  C        12.8347380756        7.5305984940       10.1136820228
  N        12.1539123573        8.6716957940        9.8474937236
  O        10.6975620523       10.0597646841       10.9403813566
  S        13.7784077953        6.8736943057        8.8051071562
  C        12.1922541934        9.4201925128        8.5843455990
  H        12.0922812700       10.5062072875        8.8868592155
  H        13.2105428236        9.3927688978        8.1269922016
  C        11.0116493961        8.9562567715        7.7061884351
  H        10.0471462282        9.0023972426        8.2225194814
  H        11.0057509140        9.5790713224        6.8108580065
  H        11.2526241596        7.9918775382        7.4939961828
  H        -3.3352239893       15.3336968591       16.7609931387
  C        -3.3345708118       14.2456866500       16.5835335480
  H        -4.4175862816       14.0547079541       16.7221091628
  C        -2.4030489290       13.4907498352       17.5332891087
  C        -3.0597986467       13.8387655023       15.1002694883
  C        -2.4018170414       13.9257579898       19.0179283462
  H        -2.7461507931       12.5031967745       17.6618225153
  H        -1.3435216080       13.4761950982       17.1619258726
  H        -1.9948831375       14.1330333124       14.9364649720
  H        -3.2104685706       12.7792777342       14.9330728009
  H        -3.6634650841       14.3885925816       14.4091922485
  C        -1.7105333035       13.0361384355       20.0027371626
  H        -3.3531646046       14.1133095713       19.3976060212
  H        -1.8906569305       14.9585346080       19.0467073078
  C        -2.1494679671       13.3116782399       21.5189239806
  H        -1.9413342478       12.0083587377       19.9083231217
  H        -0.6609819546       13.3156732022       19.9266006587
  C        -1.0940611717       12.8102515739       22.5262200721
  H        -3.1060246931       13.0152361985       21.7033998842
  H        -2.1867821553       14.4019115068       21.7296335822
  C         0.1088674778       13.6746758703       22.6634629381
  H        -1.5208892292       12.6378847494       23.5040974043
  H        -0.7804217754       11.8078574557       22.2097318512
  C         1.3612306083       13.1127705802       23.2829143504
  H         0.4180803082       14.1885629192       21.7033818133
  H        -0.2525058724       14.4108432030       23.3653342333
  C         1.6370654649       11.8264011424       22.5129325661
  C         0.9049125655       12.3502513202       24.5325550943
  C         2.6557636831       14.0143888946       23.2824444958
  C         1.5348829414       10.6995442933       23.3385018371
  C         2.0724553236       11.5370940345       21.2313151741
  C         1.0615503570       11.0283847744       24.6095381040
  C         0.3540776677       12.9494496803       25.6211163056
  H         2.8448261056       14.4814433322       22.3316942336
  H         2.3079015639       14.7551753125       24.0269153135
  C         3.9547971053       13.2462477460       23.7420800040
  S         1.7692567188        9.2206715083       22.5441034464
  C         2.1831650694       10.2050804900       21.0993358831
  H         2.3859900697       12.3095229772       20.5829414473
  C         0.5078319281       10.3420859794       25.6787259024
  H         0.2110382116       13.9863716276       25.6132642207
  C        -0.1601313308       12.3131166059       26.7480654908
  H         4.2189275269       12.5301353761       23.0055791822
  H         3.6866854633       12.7200838402       24.6506819958
  C         5.1992273320       14.0779296984       23.8664778065
  C         2.5044193891        9.5085067623       19.7787649911
  C        -0.1023243636       10.9615331285       26.7702058615
  H         0.5389637798        9.2857619971       25.6331014747
  C        -0.6746301310       12.6582163854       27.9639724930
  H         6.0157470007       13.5433913596       24.4394926259
  H         5.0166707993       14.9666690512       24.5496265389
  C         5.8549281054       14.3886370571       22.5461631481
  C         2.5892702472        8.1462858841       19.5855306197
  C         2.8622149804       10.3306349132       18.6186386472
  C        -0.5273573048       10.1459918994       27.9472543086
  C        -0.8839375773       11.5085540833       28.7388176379
  S        -1.0480811640       14.1576123366       28.6931054136
  H         6.5900771445       15.2570626011       22.6126877881
  H         5.1095856541       14.7686483718       21.8581151201
  C         6.5558273647       13.1924759455       21.9142892502
  N         2.2358551448        7.1115985046       20.5113739305
  C         2.8690374929        7.6025034472       18.3550072594
  C         3.0953545077        9.7680472150       17.3930909436
  H         2.7495421094       11.4184671654       18.7115637066
  C         0.5845071352        9.2938939334       28.5463875632
  C        -1.9082801284        9.2887256966       27.7421564483
  C        -1.3677759182       11.9004215541       30.0203023959
  C        -1.4713247082       13.2828725023       30.1448460115
  H         7.1459835491       12.6696330362       22.6184928243
  H         5.6998287659       12.4892737635       21.7269503236
  C         7.3826288804       13.5725411850       20.7132094046
  S         2.1878163211        5.6347433519       19.7230084742
  N         2.7837925123        6.2004016567       18.3297653878
  C         3.1748924003        8.3125122488       17.2217693032
  H         3.3189798073       10.4194868590       16.6249137662
  H         1.0385884999        8.5662205977       27.8634757612
  H         0.1014889701        8.7062060817       29.3217231365
  C         1.6913213836       10.0927393285       29.2641566641
  H        -1.8156826211        8.5199119660       26.9816525582
  H        -2.1679093463        8.7028827672       28.6362874141
  C        -3.0720818305       10.2380303882       27.4315675010
  H        -1.5023580219       11.0889029180       30.6918055041
  C        -1.8180511412       14.0089156851       31.4158557273
  H         7.9211358866       12.6783900204       20.5466185219
  H         8.0518805427       14.4385250255       20.8114476085
  C         6.4404649109       13.7237717908       19.4744210440
  C         3.2528233474        7.5550794562       16.0440438722
  H         2.1303186954       10.7074452670       28.4965776639
  H         1.3368227061       10.8617496092       30.0052312779
  C         2.8133577674        9.2123987212       29.9237597102
  H        -2.8651427474       10.8363296918       26.5311993539
  H        -3.3408450636       10.9863834924       28.1364447745
  C        -4.2905584523        9.3489722031       27.1666795124
  C        -1.7184567723       15.3824263112       31.6464623817
  C        -2.2509524007       13.2244792699       32.6045296999
  H         5.7821360117       12.8282585563       19.4026755439
  H         5.7503973043       14.4907140128       19.6113615323
  C         7.2251158863       13.8732488717       18.1139449844
  H         3.0474747932        6.5242308051       16.0868053498
  C         3.5493356370        7.9884303747       14.7536691827
  H         3.2051543284        8.5123015570       29.1308912518
  H         2.3901201032        8.6347218346       30.7869844661
  C         3.9677546871       10.1060130779       30.3781753702
  H        -3.9980502482        8.5393516781       26.5786312645
  H        -4.5717037835        8.8730010087       28.0640986174
  C        -5.4649506449       10.1553346830       26.6572026375
  N        -1.4720153834       16.3424547246       30.6413874886
  C        -2.0137932513       15.9831711640       32.8498409319
  C        -2.5287510699       13.8257452084       33.8709823793
  H        -2.4387863326       12.1643642463       32.4575979369
  H         7.9202774455       13.1185215916       17.8958856086
  H         6.4467088764       13.8184273916       17.3282633469
  H         7.7564665561       14.7640463017       18.0158398394
  S         4.1215575076        9.5035894805       14.2279230919
  C         3.6341751261        6.9209191597       13.7182759376
  H         4.0202795898       10.9894304048       29.7419550604
  H         3.9404910319       10.4555026583       31.4317198601
  C         5.3057780394        9.4659841107       30.2326159215
  H        -5.0351838143       10.6598643712       25.7133762150
  H        -5.7399088465       10.9158205208       27.4299541724
  C        -6.5872462571        9.2054190232       26.3338164493
  S        -1.2882112741       17.8139956001       31.2950067322
  N        -1.8664495760       17.4094131903       32.7442730211
  C        -2.4217340495       15.2279025115       34.0155762575
  H        -2.7605825153       13.2049097931       34.6850915731
  C         4.0741396374        8.8732206084       12.5372730339
  N         4.0200455266        7.4828287180       12.5444319393
  O         3.5275432042        5.7305312603       13.9793030104
  H         5.9729648798       10.2793841540       30.2661186639
  H         5.3555676497        9.0020972301       29.1955999693
  C         5.5934828216        8.3646334842       31.1981041057
  H        -6.3511876662        8.8132947777       25.3188662258
  H        -6.6059244535        8.4860462829       27.1053467508
  C        -7.8220406174       10.0432403466       26.3165870203
  C        -2.6120871339       15.9018350791       35.2116492516
  S         4.4465924148        9.7862182859       11.0520903628
  C         4.0823144550        6.6871824194       11.2764750178
  H         6.1295203853        8.7947704912       32.0093258095
  H         4.6964380385        8.0149938197       31.7541279425
  C         6.3587255549        7.1482179829       30.5383936204
  H        -7.7601199315       11.0245870946       25.7999614977
  H        -8.1600003875       10.4073832237       27.2877627207
  C        -8.9946414166        9.2552383629       25.7217582602
  H        -2.2582738172       16.9550745032       35.2447829779
  C        -3.2180577085       15.5569412652       36.4377530275
  H         4.7717639188        7.1904963076       10.5691682036
  H         4.6233427445        5.7173855232       11.4695006263
  C         2.6954224346        6.6294209364       10.6374880453
  H         7.3813563284        7.5118096136       30.4293872133
  H         5.9348274557        6.8410268044       29.5848512137
  C         6.3120292389        5.9692447151       31.5286991610
  H        -9.2175144411        8.2586753426       26.1770460769
  H        -9.8463283384        9.8671579303       25.8953976350
  C        -8.8484530152        9.1942429978       24.2534822712
  S        -3.8613094323       14.0118962681       36.8370144878
  C        -3.1739315086       16.5478191486       37.5379308509
  H         2.6191156078        5.7545797977        9.8746268224
  H         1.9156383539        6.4916130384       11.4017698708
  H         2.4363355481        7.5436325653       10.0533338150
  H         6.8193764615        5.0970395401       31.2746897088
  H         5.2290723371        5.7297104748       31.7234227431
  H         6.6753356680        6.2344639394       32.4489939041
  H        -8.2764387182        8.4180770287       23.9393960449
  H        -8.3692130601       10.0224618559       23.8470024589
  H        -9.8631789088        9.1535652598       23.8554744323
  C        -4.3349908535       14.8132493199       38.3511491194
  N        -3.8549821576       16.0379714359       38.5426410906
  O        -2.5610411200       17.6464608117       37.5788491489
  S        -4.7919849384       14.0287183975       39.8373242285
  C        -3.9644570712       16.8857242666       39.7114913487
  H        -4.0528073670       17.9097200386       39.5033121838
  H        -4.7762602222       16.5517021238       40.2805779740
  C        -2.7521331435       16.6119170704       40.6064128004
  H        -2.1398127149       17.5095719055       40.9113787576
  H        -3.0119153889       16.1560465195       41.5351470542
  H        -1.9979558554       16.0395823009       39.9764980089
