352
 i =    53300, time =    53300.000, E =        24.6336148407
  H        12.3035444377        6.0404402169       32.6677003492
  C        11.2689625450        5.8832425035       32.7065120835
  H        11.1134773898        4.8017839347       32.7025965022
  C        10.5744451906        6.5741301826       31.4963464275
  C        10.5212363382        6.4169510612       33.9765210046
  C        11.0442733626        6.0833494678       30.1183174232
  H         9.5224867376        6.5318312696       31.6120061664
  H        10.9618693513        7.6301169682       31.5822371306
  H         9.5928813074        6.8763260683       33.6555411683
  H        10.2127719506        5.5431873739       34.5378892119
  H        11.1352570318        6.9229104638       34.7588108605
  C         9.8852118765        6.1002594742       29.0672672671
  H        11.3765331303        5.1048844816       30.2690337862
  H        11.8381678720        6.7773401687       29.7412684195
  C        10.4601971966        6.1183811925       27.6604857936
  H         9.2176750806        5.2872665851       29.1439063969
  H         9.2871481874        6.9832826048       29.2264778022
  C         9.6650115054        5.2583531379       26.6429747474
  H        11.4734195336        5.6818678426       27.6831347268
  H        10.4750470065        7.1653441803       27.2581221571
  C         8.4273519851        6.0613645308       26.1447171291
  H        10.3212579337        4.8465807849       25.8966353599
  H         9.3393007511        4.3242473192       27.1742479956
  C         7.2782034052        5.2427749263       25.4958027946
  H         8.0010941157        6.4399348405       27.0696819890
  H         8.6660454003        7.0046370079       25.7079971557
  C         6.9992763335        3.9075321430       26.2776187327
  C         7.6843320779        4.5359468459       24.3392395356
  C         6.0633465630        6.1133556593       25.3076697381
  C         7.3344884611        2.7849703337       25.4853572899
  C         6.4534715015        3.5810825963       27.5244737131
  C         7.7022432120        3.1846309486       24.2400721730
  C         7.9783004007        5.1803655621       23.1621037132
  H         6.3773252073        6.9251535082       24.6411406527
  H         5.6369611603        6.4414779373       26.2338775238
  C         4.8759673862        5.4121101225       24.6510878268
  S         6.9196132303        1.3459880754       26.2738116854
  C         6.4135613036        2.2065650587       27.7274177965
  H         6.2076231641        4.3790634065       28.1873309453
  C         8.0686647712        2.5321095262       23.0263149615
  H         8.0866653656        6.2534445867       23.2798892149
  C         8.3765373009        4.5612914761       21.9917943348
  H         5.1096643243        5.4003001871       23.5807093966
  H         4.6765416486        4.3340544599       24.9726553599
  C         3.4920936863        6.1739967274       24.7289785373
  C         6.0090714606        1.6024283659       28.9679667356
  C         8.4364321313        3.2569991951       21.8886225948
  H         8.0075453929        1.4278657413       23.0633251000
  C         8.8291124297        5.0176259930       20.7904709879
  H         2.8106761918        5.8984150295       23.9210193561
  H         3.7350487839        7.1692432156       24.4685908345
  C         2.8532505600        6.0880756793       26.1082470086
  C         5.9159526069        0.2095456545       29.1726650100
  C         5.6835790870        2.4990739125       30.1161244839
  C         8.8069262590        2.6031870182       20.5659756163
  C         9.0173120215        3.9704188281       19.8936489190
  S         9.2824979344        6.5937063842       20.0826138781
  H         2.0778312786        6.8683644480       26.0010365177
  H         3.4934012346        6.4247131121       26.8494805162
  C         2.3666530437        4.6334483334       26.4948519866
  N         5.9734202828       -0.8477301622       28.2562229282
  C         5.7041351338       -0.3348049284       30.4544520804
  C         5.3636816417        1.9644265722       31.3643346236
  H         5.6247396446        3.5294607971       29.8900751742
  C         7.5884959322        1.7776237943       20.1599204919
  C        10.0417854557        1.7138328166       20.3945409142
  C         9.2763024083        4.4485275553       18.6160185294
  C         9.4327111807        5.8115959313       18.5217277808
  H         1.8023106935        4.1908720250       25.6968205225
  H         3.2194904914        4.0278122482       26.7326155121
  C         1.3818246673        4.7010489582       27.7184890825
  S         5.9048516114       -2.3054619790       29.0325868491
  N         5.7563805573       -1.7172150306       30.5425467794
  C         5.4747362627        0.4801287743       31.5863811430
  H         5.0412416510        2.6113150570       32.1688685701
  H         7.3443092398        1.0290930396       20.8625449916
  H         7.8324067231        1.3519739653       19.2345722694
  C         6.3447923155        2.5835294254       19.7272891120
  H        10.1157173187        1.2765180749       19.3850534356
  H        10.0214541731        0.9518845390       21.1106263941
  C        11.3092900832        2.6037876865       20.6351953109
  H         9.3850547679        3.7359404938       17.8114454952
  C         9.8628253087        6.4924751255       17.2840352856
  H         1.0049691719        3.6436476460       27.8983178954
  H         0.5547453640        5.3519455068       27.5677014995
  C         2.1961887496        5.1977131333       28.9296992760
  C         5.2247745450       -0.1254202324       32.8218754140
  H         6.6565038158        3.3718604881       18.9908161575
  H         5.9966231480        3.1231274696       20.5429870027
  C         5.1654997706        1.7194290872       19.1863178421
  H        11.1398804842        3.0473996735       21.5900327214
  H        11.3968106547        3.3552459311       19.9067061284
  C        12.5551811240        1.8162121535       20.6658273658
  C         9.9962572476        7.8507732426       17.1630474153
  C        10.0889653572        5.7216890979       15.9649732271
  H         3.1235458721        4.7104162963       29.0854810159
  H         2.4697632837        6.2327386392       28.7619480850
  C         1.3575754452        5.3243906631       30.2069922654
  H         5.2379462247       -1.2017833519       32.7513848876
  C         4.8572329910        0.2458935057       34.0725494252
  H         4.7640341697        1.0594826337       19.9844496987
  H         5.6369142244        1.0399974704       18.5090948754
  C         4.1719464945        2.5733734123       18.5331560805
  H        12.6605432561        1.4766327870       21.7180503857
  H        12.6663133100        0.9538570651       20.0175933519
  C        13.7759561111        2.7133199157       20.6151012859
  N         9.6357373769        8.7768882156       18.1683775976
  C        10.3587238516        8.5432610439       16.0334773862
  C        10.4321914138        6.4128534140       14.8710629214
  H         9.8945375151        4.6749059329       15.9282760955
  H         1.9792551714        5.7057365898       30.9838676860
  H         0.4605730621        5.9149153062       30.2520101494
  H         1.1702904607        4.3545810653       30.5659246613
  S         4.4647204903        1.8253091839       34.5924475625
  C         4.7803917385       -0.8622351315       35.0979865413
  H         4.0416320267        3.4809524013       19.0538923194
  H         4.5695389810        2.8972309596       17.5876564852
  C         2.8112352202        1.8626755884       18.4118569051
  H        13.5069805032        3.4931812851       19.9029330159
  H        14.4791101128        1.9901302462       20.2057233572
  C        14.1490886865        3.1057523675       22.0158557609
  S         9.8535353621       10.3405995795       17.6932814076
  N        10.3432814845        9.9926795217       16.2014908459
  C        10.5886942452        7.8516460408       14.8336699029
  H        10.4801964190        5.8903127780       13.9385515916
  C         4.1881204148        1.0951321283       36.2078527942
  N         4.4108816911       -0.2494150859       36.2807234099
  O         4.8358433639       -2.1104540194       34.8680090375
  H         2.0931100764        2.6522399855       18.1414586543
  H         2.4602668167        1.5116617468       19.4267149295
  C         2.7407070642        0.6793559536       17.3181197761
  H        14.5548280515        4.1223978265       21.9453328400
  H        13.3403309920        3.2838572582       22.6766119885
  C        15.0330000767        2.1516243128       22.7540675040
  C        10.8597783905        8.6514127483       13.6479397075
  S         3.8133255388        1.8140019047       37.7248868998
  C         4.2421915840       -1.0694721038       37.4795221416
  H         1.8862532203        0.7623538885       16.6610599534
  H         3.6516026935        0.8276419189       16.7665114157
  C         2.6629678546       -0.6636727560       17.9613375180
  H        14.4614611105        1.2153632264       22.9448859726
  H        15.1645867941        2.5227360691       23.7437468685
  C        16.3511448716        1.9344059671       22.1359248119
  H        10.4062756617        9.6389417420       13.7690632264
  C        11.2712015922        8.4048910563       12.3983694130
  H         3.3599735490       -0.8015342607       38.0878605834
  H         4.0910666452       -2.1877147781       37.3176935068
  C         5.5035399287       -0.8547647430       38.3538351092
  H         1.8480682277       -0.5139275469       18.7014695749
  H         3.5424316223       -0.8688798903       18.5047698379
  C         2.4060569377       -1.8351779145       17.0428521791
  H        16.4771655369        0.8667907241       21.9782244554
  H        16.4995316735        2.4662526375       21.1810833411
  C        17.5080877751        2.4224755647       22.9495664707
  S        11.9000451367        6.8461082025       11.8417138394
  C        11.3073739563        9.4915623399       11.3532705165
  H         5.2768467047       -0.7190175452       39.4130329036
  H         6.1468250541       -1.7057672371       38.3078249274
  H         5.9814874693       -0.0560747776       37.9671169900
  H         1.4921164123       -1.5675663397       16.5261167074
  H         2.3626027310       -2.6756291945       17.7547586704
  H         3.1785075062       -1.9163158402       16.2550716602
  H        17.5894091543        2.0537851161       23.9534303673
  H        17.5844093472        3.5283271687       22.9301693605
  H        18.4304944179        2.0891078917       22.4415855697
  C        12.1192907511        7.5764872882       10.2450604427
  N        11.7853934915        8.9376787381       10.2240840308
  O        11.0518816513       10.6167178609       11.4887169045
  S        12.8486369398        6.7642936490        8.8189328411
  C        12.0392315745        9.7516010606        9.0691580130
  H        12.6151070931       10.6769555758        9.3875280043
  H        12.7510745803        9.3321735520        8.3256983673
  C        10.7063817284       10.0515189244        8.3902995523
  H         9.8772409671       10.2828176637        9.0192431887
  H        10.9752743830       10.9289261116        7.7840888923
  H        10.4442912636        9.2522054093        7.6874263722
  H        -2.0204164276       13.0382621223       17.2076870275
  C        -1.9697141009       14.0338026310       16.8674720716
  H        -0.8980920239       14.2525799042       16.6442409487
  C        -2.3093871888       14.9654035590       17.9642464109
  C        -2.7554825939       14.3206611883       15.6021891127
  C        -3.0003931936       14.2258550046       19.1129374713
  H        -1.3933772264       15.5338850506       18.2786666781
  H        -2.9270595557       15.8705493961       17.6608578758
  H        -2.6998449694       15.3423911017       15.3413725432
  H        -2.2822092093       13.6768203761       14.8599086862
  H        -3.7956013480       14.0669688625       15.8453737689
  C        -1.9729878935       13.8263603866       20.1853484246
  H        -3.6481325693       13.4322836531       18.8056204701
  H        -3.5449474402       15.0417688076       19.5599021475
  C        -2.4405368431       13.7264446008       21.6301708758
  H        -1.4994150471       12.9416866753       19.9052628988
  H        -1.2181809547       14.5850123649       20.1455638862
  C        -1.3776749457       13.0353164267       22.4192576618
  H        -3.3820280152       13.1867989772       21.6286438373
  H        -2.5400720572       14.8449523985       21.8761057211
  C        -0.1660093314       13.9476671388       22.6494461828
  H        -1.8220216265       12.8118530958       23.3474725082
  H        -1.1920917552       12.0103574698       22.0544558556
  C         0.9626610477       13.1827602727       23.4466672437
  H         0.3779989820       14.2853447351       21.7428391697
  H        -0.4288522529       14.8060914649       23.2547595514
  C         1.2538600969       11.8700212550       22.7232978671
  C         0.4991755064       12.3420189040       24.5988033810
  C         2.2971443469       13.9397050316       23.7463538795
  C         1.1959022469       10.7169232003       23.5350647894
  C         1.7293869218       11.5273411029       21.4488826977
  C         0.6554906071       10.9972213902       24.7231971962
  C        -0.0693041017       12.9186484052       25.7447654951
  H         2.5510991493       14.4653643005       22.8547488293
  H         2.1088336551       14.6729717211       24.5978304176
  C         3.5766162599       13.1217009530       24.1908818606
  S         1.6075449719        9.3264376307       22.7066915260
  C         2.0413849714       10.2397742900       21.3234708297
  H         1.7480627526       12.2494502303       20.6757007842
  C         0.2864460488       10.4030986582       25.8701203809
  H        -0.2226463216       13.9935079662       25.6051383398
  C        -0.3670822466       12.3137390827       26.9038325975
  H         3.7311418449       12.3682322595       23.4469771998
  H         3.3412869713       12.5575343446       25.0520102658
  C         4.8719270465       13.9701477490       24.3023351986
  C         2.6084227799        9.6821154332       20.0493119327
  C        -0.1507903740       10.9796300288       27.0433889654
  H         0.3621178749        9.3109956835       25.9577659551
  C        -0.7812511199       12.5744024735       28.1412595929
  H         5.5058531813       13.7148685138       25.1000011254
  H         4.5480900780       14.9464302530       24.6265885346
  C         5.7929656165       14.2874032516       23.1329947537
  C         2.5782113284        8.3308143276       19.7507438634
  C         3.1788883924       10.6028366774       18.9825076669
  C        -0.5946847968       10.2124558552       28.2485852295
  C        -0.8468830074       11.4997087275       28.9560106327
  S        -1.0294964594       14.0161830004       28.9880636172
  H         6.4346259313       15.1108299884       23.4278630775
  H         5.1673834761       14.4871511402       22.2445368350
  C         6.6520860318       13.1072855510       22.8073825984
  N         2.2120608235        7.3413535577       20.6528462836
  C         2.9207403012        7.7590374948       18.5085152687
  C         3.3532716545       10.0818881594       17.6980542194
  H         3.3315665029       11.6746622461       19.0945697688
  C         0.6361797387        9.5334055621       29.0208615938
  C        -1.7854282522        9.3245084753       28.0740560724
  C        -1.2573734647       11.8567656449       30.2468567211
  C        -1.3237600113       13.1687627108       30.4605957384
  H         7.1569539807       12.8936018165       23.6984786745
  H         6.0403353124       12.2494295133       22.6629828195
  C         7.7945420879       13.2199485017       21.7878046170
  S         2.0022975015        5.8652582045       19.9738465414
  N         2.5977274248        6.3802377317       18.4742713611
  C         3.2631039334        8.5522964335       17.3915491943
  H         3.6560111543       10.6863500403       16.8303391742
  H         0.9738093520        8.8040898609       28.3052185924
  H         0.2478215856        9.0920171677       29.9314072678
  C         1.8480766679       10.4222462586       29.4463521437
  H        -1.5336932706        8.4401972081       27.4366811196
  H        -2.0882956635        8.8719497415       29.0589162624
  C        -3.0253269668        9.9822755243       27.4404576951
  H        -1.3395037355       11.0651411549       30.9412525345
  C        -1.5290542963       13.8765554113       31.7753459425
  H         8.5239556138       12.4566747268       21.9873093814
  H         8.3267601327       14.1547848277       21.7457906087
  C         7.4064664626       12.8786276131       20.3558281735
  C         3.3946121043        7.8816476364       16.1234968152
  H         2.3060722199       10.9132519483       28.5736690871
  H         1.5268109643       11.1569806473       30.2110396141
  C         2.9202617531        9.5150651353       30.0307689016
  H        -2.8243664409       10.0519304675       26.3434392190
  H        -3.0773552176       11.0535364489       27.6882803008
  C        -4.3264833243        9.2743117133       27.8208988966
  C        -1.5862413043       15.2467910391       31.9157709964
  C        -1.7584618960       13.1347866139       33.0158749130
  H         8.3412327380       12.6059995511       19.8500742457
  H         6.7038563221       12.0883592561       20.3548575556
  C         6.7433629350       14.0054393628       19.5703272730
  H         3.1706397287        6.8331728751       16.1759658558
  C         3.7080682923        8.3192615422       14.8381769575
  H         3.3343604200        9.0295883866       29.1190868430
  H         2.4926463938        8.7442958519       30.6466956983
  C         4.0323909977       10.2761355935       30.7508586344
  H        -4.2721202910        8.3542088924       27.2642028610
  H        -4.2923573800        8.9254010500       28.8478528516
  C        -5.6513242981        9.9571026086       27.5555194752
  N        -1.5008463888       16.1210147343       30.8592417336
  C        -1.8958939778       15.9384627475       33.0662954496
  C        -2.0398972914       13.7732763034       34.2038911849
  H        -1.7899365343       12.0801024091       32.9409325158
  H         6.0860292120       14.6082526702       20.2190202847
  H         7.5422007364       14.7158598397       19.2480516819
  H         6.1790836707       13.5907027855       18.7704138891
  S         4.0888934146        9.9030212052       14.3712654774
  C         3.6804388350        7.3593091132       13.7214023535
  H         4.2523698017       11.1737921145       30.1791652785
  H         3.5951968673       10.5374402106       31.7021230125
  C         5.2643593993        9.3689054883       30.8468322310
  H        -5.8963319182       10.7438780598       28.2566581117
  H        -6.3679930567        9.1829889352       27.8100823291
  C        -5.8807077750       10.4765984028       26.1213704860
  S        -1.5759877781       17.6672170718       31.3827885919
  N        -1.8279310028       17.3469198782       32.9336862946
  C        -2.1738254055       15.2273349877       34.2937083539
  H        -2.2565513779       13.1516060775       35.0886771084
  C         4.1771277797        9.3072390966       12.7218421038
  N         4.0424778501        8.0001449089       12.5698105017
  O         3.3633772792        6.1560259566       13.8584099547
  H         6.1033353267       10.0944465057       31.0990479924
  H         5.4330181930        8.9095178653       29.8592268480
  C         5.1974422096        8.2294570662       31.9406919644
  H        -5.2503019280       11.3070464843       25.9396332329
  H        -5.7136597438        9.6664843700       25.4480005203
  C        -7.3256830249       10.9367504061       25.9166833166
  C        -2.5374591537       16.0007785819       35.4173353558
  S         4.7876046034       10.1575806238       11.3421148890
  C         4.1042844306        7.1791101020       11.3105813463
  H         5.7740729242        8.5101316175       32.8140282136
  H         4.1954428296        8.1665537013       32.2524743087
  C         5.6999595293        6.9215171310       31.3661393255
  H        -7.4010497160       11.5047666271       24.9811128344
  H        -7.6967704438       11.4767894506       26.7352644060
  C        -8.2652190208        9.7663355377       25.7745976236
  H        -2.0894237819       17.0398448659       35.3717852880
  C        -3.1420887187       15.6986850442       36.5713598869
  H         5.0102243418        7.4366168336       10.7884798134
  H         4.2252320852        6.1452722657       11.6067379587
  C         2.7961691798        7.2368913954       10.5369241700
  H         6.4500648263        7.1133446386       30.6648854017
  H         4.8896485237        6.4662744073       30.7402124968
  C         6.2229388223        6.0202082891       32.4957718648
  H        -7.9399391376        9.2692084218       24.8861104945
  H        -8.3377249578        9.0999995371       26.6373067310
  C        -9.7087491988       10.2590195409       25.4606924891
  S        -3.7331506627       14.2049421640       37.0916135302
  C        -3.1226618155       16.7836052914       37.6133245798
  H         3.0750172758        7.4913256122        9.5345993346
  H         2.2764027263        6.3099320283       10.6916981901
  H         2.2489974377        8.0498456124       10.9839228121
  H         6.9981557917        6.5024494650       33.0595951157
  H         6.7187572426        5.1519646113       32.1046138885
  H         5.5466870090        5.7101026647       33.2334892402
  H       -10.0569569885       11.0256787752       26.1800714540
  H       -10.3865208425        9.4051488564       25.5448148334
  H        -9.7948709534       10.6860060356       24.4157811644
  C        -3.9697679665       15.0440001304       38.7270264088
  N        -3.7186381096       16.3549466569       38.7124907071
  O        -2.7482211493       17.9572178175       37.4751447671
  S        -4.7047735372       14.2433529595       40.0805879680
  C        -3.8877405079       17.2457623621       39.8064134845
  H        -4.2754497192       18.2624963380       39.5616106318
  H        -4.5697461488       16.8484547336       40.5827517555
  C        -2.5335687813       17.5156820935       40.5414851793
  H        -2.4942149655       18.5356500460       40.8575790447
  H        -2.4332863089       16.9231285717       41.4411614274
  H        -1.6999246109       17.4506796355       39.8845501118
