352
 i =    25000, time =    25000.000, E =        25.2871986728
  H        12.2493929572        6.8875794773       32.5941647362
  C        11.6604739356        5.9207661349       32.5556164968
  H        12.4226862023        5.1152568567       32.3075580542
  C        10.6362582945        5.5954627659       31.4865200467
  C        11.1530658036        5.3881609413       33.8823337397
  C        11.0674988613        6.0566353788       30.1142220821
  H        10.4185923666        4.5631405985       31.5935961009
  H         9.6723779995        6.1157907701       31.6604005920
  H        10.6737366961        6.1723065179       34.5075243729
  H        10.4828845371        4.6012191805       33.6771760118
  H        11.8581538488        5.0237053896       34.5756429935
  C         9.9428371334        6.0184607435       29.0569111825
  H        12.0300624523        5.6368499400       29.8152682028
  H        11.1680747576        7.1287300367       30.1472293669
  C        10.5362743200        6.0488804466       27.5625988578
  H         9.3528099010        5.0481612856       29.1579992770
  H         9.2685050674        6.8719029779       29.0867994821
  C         9.5825062706        5.1269145316       26.6546791361
  H        11.5599367382        5.7917418898       27.5008432066
  H        10.2620194866        7.0222866035       27.1024449596
  C         8.3831816345        6.0554450494       26.1737725134
  H        10.0896847099        4.6635003704       25.8906983002
  H         9.1076772376        4.3096713526       27.2379224618
  C         7.2936628781        5.3432479389       25.4298117106
  H         7.9845616236        6.4664521108       27.1244536960
  H         8.8025282509        6.8385384659       25.5556042171
  C         6.9565285155        3.9591341972       26.1647401169
  C         7.7067095330        4.5553926934       24.1902526738
  C         6.1225827865        6.2983718055       25.3133133964
  C         7.2499808693        2.8800080934       25.3431212201
  C         6.4952475024        3.5686952646       27.3918368648
  C         7.7243544606        3.2079513202       24.1120977861
  C         8.2305180269        5.1480061538       23.0619934764
  H         6.3509900572        6.9381460791       24.4441426598
  H         6.0235820933        6.9585126837       26.1887638858
  C         4.7158299555        5.5335241518       25.0714915016
  S         6.9583459857        1.4322673077       26.1492433625
  C         6.4264795497        2.2353859141       27.5470102620
  H         6.1900015095        4.3504078220       28.0801099634
  C         8.0232923274        2.5792112813       22.9356032835
  H         8.1866668163        6.2243305100       23.1074381418
  C         8.6407217111        4.5248115269       21.9059932614
  H         4.6634472252        4.9417488636       24.1167107023
  H         4.5439885194        4.7757059341       25.8418816274
  C         3.4844990857        6.6159446168       25.1407325989
  C         5.9211022824        1.5403570814       28.7548402174
  C         8.4875284928        3.1926266819       21.7479484280
  H         7.9045973245        1.5701341053       22.7856321691
  C         8.9853213720        4.8910474104       20.6295088870
  H         2.7049718187        6.1806281916       24.5088693323
  H         3.7000229992        7.6277531558       24.7895641559
  C         2.8819438072        6.7337985743       26.5208334294
  C         5.8759779003        0.1268301112       28.9738931224
  C         5.4967249129        2.3158802279       29.9762272316
  C         8.8128947988        2.4366967638       20.4986308464
  C         9.0602502370        3.7804190627       19.8342477581
  S         9.2839540929        6.3463870700       19.8144233004
  H         2.2136258821        7.6250541150       26.5926869902
  H         3.7623736349        6.8830477457       27.0925896674
  C         2.2337635063        5.4109359268       26.9835769285
  N         6.3850564659       -0.8182456477       28.0355904806
  C         5.5651764464       -0.4630495824       30.1741858931
  C         5.0581250688        1.7334091027       31.1436981004
  H         5.3967574303        3.3751720180       29.8824030113
  C         7.6216666734        1.6866147917       19.7879129710
  C        10.1044996109        1.6065525738       20.7369635725
  C         9.5340827758        4.1278100995       18.5694968441
  C         9.6389868654        5.4482507298       18.3558234168
  H         1.4901571002        5.0819011654       26.2162826750
  H         2.9200912922        4.5600562932       27.2119933065
  C         1.5140025675        5.7000994928       28.3377116658
  S         6.0965191126       -2.2805187234       28.6010842379
  N         5.6594843048       -1.8571358065       30.1587599450
  C         5.1599940451        0.2636627761       31.3700901501
  H         4.6818416714        2.4116336241       31.9019477402
  H         7.3887827564        0.7800859334       20.3824898614
  H         8.0263959715        1.3459674633       18.8079116751
  C         6.2755898298        2.4000761184       19.6591436391
  H        10.3444094036        1.2847050535       19.7363353332
  H         9.8349885663        0.7231330516       21.3085631992
  C        11.3238967289        2.4122960917       21.3364032742
  H         9.6777004696        3.2846884193       17.8887663818
  C        10.0222069711        6.1487010393       17.0792873732
  H         0.6806386755        5.0174714009       28.4970086381
  H         1.0289564769        6.6742381543       28.3019324841
  C         2.3088234858        5.5864941692       29.5512753323
  C         4.9691387491       -0.4231684622       32.6364019810
  H         6.3138715042        3.3489208623       19.0503548574
  H         5.9554162711        2.7927243465       20.6122133084
  C         5.2882053134        1.4936604330       18.9197491695
  H        11.0115890595        2.7916650849       22.3165772035
  H        11.5616666502        3.2786540894       20.6908164211
  C        12.5146607697        1.4895478638       21.3786466534
  C        10.2287194796        7.4995154432       16.9730415883
  C        10.0823682699        5.3861017358       15.8056914347
  H         2.5470344320        4.5028033858       29.6714067764
  H         3.2753211999        6.0457901802       29.4616773376
  C         1.5132965322        6.0275243908       30.6652360983
  H         5.2827131404       -1.4466835491       32.4886669035
  C         4.7005642509        0.0174854225       33.9195517779
  H         5.0537539997        0.5838156335       19.3973768822
  H         5.7742379116        1.1588426650       17.9127796942
  C         3.9043031650        2.2039942703       18.4818348654
  H        12.6164693648        1.0245798410       22.3479325994
  H        12.3907216532        0.7192749437       20.7005812913
  C        13.8867445718        2.1968005737       21.1218055639
  N         9.9505207996        8.4050941491       17.9597084025
  C        10.5775424266        8.1569469880       15.7892491052
  C        10.4639793135        5.9542814643       14.5645612094
  H         9.6351936779        4.4138464733       15.8485391164
  H         0.6423060789        6.6254119009       30.4147539949
  H         1.2635574775        5.0927620952       31.1757070476
  H         1.9716941624        6.6211707650       31.4681079606
  S         4.2454275963        1.6198137221       34.4460223723
  C         4.7050626001       -0.9611546956       34.9769959760
  H         3.6701303438        3.0314622411       19.1243883043
  H         4.0424011374        2.5484786516       17.4468979480
  C         2.7867234300        1.1549034290       18.3521793424
  H        13.8178278954        3.0471756148       20.4512040685
  H        14.5283385393        1.5257504318       20.6112337921
  C        14.4746954950        2.5781537404       22.4896061375
  S        10.1289039160        9.8815311321       17.3236060293
  N        10.5791813837        9.5489005342       15.8246579461
  C        10.7981806651        7.3997746372       14.6101697354
  H        10.4993857368        5.3247920787       13.7148862492
  C         4.0413479496        0.8769272281       36.0882381445
  N         4.1889303546       -0.4113050418       36.0588576137
  O         4.8868970530       -2.1249602649       34.7058168143
  H         1.8605813638        1.6316917178       18.5276853074
  H         2.7945408247        0.3136237706       19.0766067725
  C         2.8590887195        0.4762223779       16.9868250181
  H        15.0220403900        3.4897287211       22.4117883920
  H        13.5950751575        2.8403022241       23.0971974521
  C        15.3303853458        1.5187074760       23.1857601069
  C        11.1375465215        8.1320285396       13.4705879190
  S         3.7078456407        1.7270748845       37.5470504393
  C         4.1577876468       -1.2246359254       37.2810564405
  H         2.3278306299        1.0499484382       16.2468783143
  H         3.9325398161        0.5226704463       16.7319745264
  C         2.3111573855       -0.9304038156       16.8455932312
  H        15.3772231368        0.6931644746       22.5438706200
  H        14.7150324671        1.2576460825       24.0271631291
  C        16.8304103273        1.9936492219       23.5646003407
  H        10.8779300936        9.1888551119       13.5402176482
  C        11.7053660943        7.8760744551       12.2650889183
  H         3.4577930655       -0.8471241579       38.0284760972
  H         3.7242177615       -2.1215484538       36.8722562764
  C         5.5358507556       -1.4965562634       37.9076769747
  H         2.2854992813       -1.1938155431       15.7741484949
  H         1.2732247692       -0.8644899623       17.0153751004
  C         3.1554355444       -1.9629952500       17.6306259098
  H        16.7369556879        2.9831555313       23.9687347034
  H        17.1890340264        1.4680038462       24.4116042784
  C        17.7571849703        1.9645274568       22.3285497511
  S        12.4736783160        6.4398606842       11.8283533585
  C        11.5849039558        8.9568526515       11.2227169070
  H         5.7424696138       -0.9606555459       38.8377399385
  H         5.6390121978       -2.5364371179       38.1519963782
  H         6.2970041373       -1.2187695096       37.1432955509
  H         4.2840715820       -1.9274358819       17.5325245601
  H         2.7119028761       -2.9341250377       17.5094644840
  H         3.0220916926       -1.7469316966       18.6117132086
  H        18.7935302259        2.3184322708       22.6109726028
  H        17.2721360984        2.5062767505       21.4722352067
  H        17.8207877151        0.9095410818       22.0339340389
  C        12.6212141295        7.1450593722       10.2358357038
  N        11.9802429192        8.3157161818       10.0801726355
  O        11.0195075452       10.0306148709       11.3291748787
  S        13.6309844239        6.4032245883        8.9828350247
  C        12.1344741269        9.0747390967        8.8534523355
  H        12.8581533237        9.8807571284        9.0236895777
  H        12.5166781966        8.5094619092        8.0125618253
  C        10.7440415232        9.6454895330        8.4060329290
  H         9.9568534314        9.1900444705        8.9574784065
  H        10.6124794669       10.7361689232        8.5812369643
  H        10.5867574217        9.3394293233        7.3925695693
  H        -2.2528583982       14.9900998582       15.3847239596
  C        -2.7229197075       14.2660633644       16.1082734565
  H        -3.6569700710       14.7670706204       16.3577639386
  C        -1.6983150656       14.0328081528       17.1991923555
  C        -3.1854780550       12.9290190171       15.4058623814
  C        -2.3948116022       13.6586916405       18.5006666860
  H        -0.9783975055       13.2438835515       16.8000570811
  H        -1.1735509331       14.9686147193       17.2505359848
  H        -2.4760160744       12.1169118262       15.3054678939
  H        -4.0713200142       12.5416390660       15.8700173410
  H        -3.3635300471       13.2592498267       14.3902615208
  C        -1.4220424807       13.5791885667       19.5827885605
  H        -2.7174588709       12.6173458280       18.3629045869
  H        -3.1764618028       14.3889670537       18.6473130039
  C        -2.1476733248       13.5559321831       20.8902979369
  H        -0.7989342620       12.6777787709       19.5548429470
  H        -0.8564192911       14.4889819165       19.4992098551
  C        -1.2121411268       13.0691823392       22.0413315788
  H        -2.9821344160       12.9114400823       20.8831003541
  H        -2.4434526473       14.5851254432       21.1552189915
  C        -0.0125378842       14.0274442155       22.3892159176
  H        -1.7118840049       12.8730014346       22.9868435423
  H        -0.7995219050       12.1108334251       21.7513325017
  C         1.1276871976       13.2628592958       23.0849099933
  H         0.4896528188       14.5675747270       21.5834274635
  H        -0.2686100877       14.8212051998       23.0567312459
  C         1.5161789859       11.8885400042       22.5062212049
  C         0.6989551419       12.5666641122       24.3735249648
  C         2.4344922939       14.2006830581       23.1427567337
  C         1.2834251834       10.8229466310       23.3233248215
  C         1.9572030690       11.4460987951       21.2451043520
  C         0.7711771728       11.2184235262       24.5237063298
  C         0.3234095941       13.2820829850       25.4759760911
  H         2.4414807821       14.5298699183       22.1440224139
  H         2.4653039584       15.0573892311       23.8313837741
  C         3.7245121401       13.5474906334       23.5570237511
  S         1.5215080733        9.2946861996       22.5595888563
  C         2.1130799761       10.0763468311       21.1189026986
  H         2.2493640618       12.1610322780       20.5437399772
  C         0.2997519241       10.5748619115       25.6365576408
  H         0.3865604109       14.3401984970       25.3798508995
  C        -0.0670353073       12.6722249738       26.6366369067
  H         3.8636666831       12.5220324896       23.1422814055
  H         3.6254568515       13.3182179606       24.6173171322
  C         4.9466079842       14.3067277679       23.3967383212
  C         2.6323878220        9.3542160332       19.9552378541
  C        -0.1427709357       11.2835470284       26.7516606157
  H         0.5829170762        9.5362781761       25.6341162606
  C        -0.5024987263       13.0653267865       27.8711811227
  H         5.7728621608       13.9605531905       23.9848129455
  H         4.6595552854       15.3171698261       23.7028670657
  C         5.5023837543       14.3458653712       21.9458431051
  C         2.5337118412        7.9539488817       19.7122536253
  C         3.1801391783       10.2171595277       18.8940348118
  C        -0.5870991382       10.6107148717       27.9787949706
  C        -0.6470154649       11.9613648952       28.6973641868
  S        -0.7846393537       14.4947893780       28.7566426200
  H         6.3520605299       15.0218978839       21.9613348763
  H         4.9644504642       15.0210542019       21.2864310898
  C         5.7804537138       13.0548116559       21.2065445712
  N         1.9085068791        6.9787684341       20.5887565227
  C         2.8979797349        7.4169143063       18.4586967152
  C         3.5694444444        9.6211890518       17.6790584953
  H         3.3412983924       11.2578658964       18.9609074767
  C         0.4555458518        9.6368653021       28.6707316224
  C        -1.9117016913        9.9293898122       27.8261831907
  C        -1.0806381413       12.2681904676       29.9906626817
  C        -1.0986571300       13.6276716504       30.2007496643
  H         5.9416052479       12.2944248294       21.9842594705
  H         4.8453697758       12.8245301781       20.6535568142
  C         7.1136452851       13.0611625755       20.4249599883
  S         2.0427128570        5.5316421799       19.8462229836
  N         2.4991890908        6.0593849865       18.3620490710
  C         3.3080341108        8.2251236863       17.3660041127
  H         3.9003372207       10.2757967860       16.8954037948
  H         0.7309293183        8.7582192134       28.0227114800
  H        -0.1209779302        9.2026951608       29.4968333014
  C         1.7070078467       10.3421090258       29.1301519961
  H        -1.8398614138        9.0952592887       27.2317921874
  H        -2.2127717241        9.4690282301       28.7895363409
  C        -3.1731632039       10.7178069225       27.4927382497
  H        -1.2707742880       11.5334480387       30.6756161636
  C        -1.4283339392       14.3840430247       31.5120954714
  H         7.4040826131       11.9952860048       20.2170794908
  H         7.8623752939       13.5746783747       21.0372011875
  C         7.0030486905       13.8427508806       19.1406389978
  C         3.3444719430        7.5946381619       16.0729647758
  H         2.1862746615       10.8486301195       28.3640431391
  H         1.5014128198       11.1315613134       29.8477356600
  C         2.7605587380        9.3314884008       29.5856569727
  H        -2.9649427368       11.1416070024       26.5242446608
  H        -3.3913142479       11.4278616535       28.2846683724
  C        -4.4433693188        9.9176753677       27.3293769199
  C        -1.5198166500       15.8097857848       31.6724465885
  C        -1.6405987717       13.5743442110       32.7377944848
  H         6.1171115160       14.4830249439       19.1408192509
  H         7.9008782464       14.5099321601       18.9699797932
  C         6.8335856441       12.8779651408       17.9456202345
  H         2.9597392075        6.5499788124       16.0260108098
  C         3.7384622167        8.0156806631       14.8191438389
  H         3.3362032875        9.0920132780       28.7237718410
  H         2.3231968648        8.3759049330       29.7260520519
  C         3.5787288925        9.9429883980       30.6843938065
  H        -4.4051392648        9.2615666033       26.4428762143
  H        -4.5373737415        9.2641103637       28.1729300110
  C        -5.6869156354       10.7883355826       27.1569057821
  N        -1.2772364342       16.7225398457       30.6521532121
  C        -1.7831718417       16.4344381665       32.8797330319
  C        -1.9921147366       14.1886148490       33.9606373712
  H        -1.5772052104       12.5612194653       32.7286210883
  H         7.6973274112       12.2008544723       17.7420434342
  H         5.9367852320       12.2646276284       17.9836920690
  H         6.7123622328       13.4581502182       17.0114173820
  S         4.2344006748        9.6049125881       14.3882673837
  C         3.7428375275        7.0241642115       13.6840082125
  H         3.6665033391       11.0122375790       30.7687747638
  H         3.2440642210        9.6526798875       31.6690028839
  C         4.9730704753        9.4076352784       30.5792819550
  H        -5.5532746445       11.7088604903       26.6104133109
  H        -5.8810673961       11.1336658376       28.1368767201
  C        -6.9361826500       10.0465043648       26.7355496338
  S        -1.2771208429       18.2412055160       31.3898699825
  N        -1.9415198021       17.8526269117       32.7705540932
  C        -2.2149341426       15.6834025377       34.0454752174
  H        -2.3194949605       13.5782562283       34.8182222450
  C         4.4189015865        8.9885985615       12.7532691229
  N         4.3006022933        7.6459199443       12.6517593733
  O         3.6224878779        5.8051324700       13.8582284234
  H         5.6448238509       10.1417613622       31.0189388667
  H         5.2527928663        9.1579475349       29.5298093082
  C         5.1237426812        8.1737382700       31.4597784020
  H        -6.5980159234        9.2659210616       25.9990317122
  H        -7.4547459223        9.6549357964       27.6271388492
  C        -7.8670874133       11.0551519754       26.0638867848
  C        -2.6037992987       16.4297048781       35.1905177908
  S         5.1376201141        9.9012285766       11.3357792320
  C         4.4236036304        6.8637727993       11.3512102946
  H         4.9799351839        8.5346387450       32.4569993226
  H         4.3345031583        7.4212588801       31.3713540818
  C         6.4129816991        7.5499242168       31.5533973357
  H        -7.4158512598       11.6607852762       25.2611120486
  H        -8.0050940776       11.9105569678       26.7634632025
  C        -9.1936887474       10.4524341504       25.5280019284
  H        -2.2019176052       17.3996535763       35.1982510355
  C        -3.1505629268       16.1034640226       36.3647997848
  H         5.2027505990        7.2438420943       10.6497220783
  H         4.7821105655        5.8332700822       11.5952363347
  C         3.0750609436        6.8572410686       10.6389684917
  H         6.6225628844        7.2183337620       32.6316671288
  H         7.1997196231        8.3285257519       31.2991865642
  C         6.5238439239        6.4136279493       30.5988618530
  H        -9.4646964685        9.6605875475       26.1970029238
  H        -9.8846629082       11.2100268492       25.5866010320
  C        -9.0103795362        9.9449786867       24.1249356898
  S        -3.6633158458       14.5390912290       36.8922455032
  C        -3.1124566294       17.1456342654       37.4495347405
  H         3.0219317644        6.2271212316        9.7226880297
  H         2.3157278691        6.4825394662       11.3418466637
  H         2.8472101014        7.9014300716       10.4160185044
  H         7.4554056269        6.0423880821       30.2234199629
  H         6.0479651692        6.6919254860       29.6926371143
  H         5.8708860849        5.5810901092       30.9060156594
  H        -8.8566152520        8.8538839714       24.0026089755
  H        -8.1994663287       10.4455940811       23.5296991948
  H        -9.8550124529       10.1300401399       23.4754467787
  C        -3.7348841338       15.1970862202       38.5588416688
  N        -3.6278893522       16.5770857055       38.6408089103
  O        -2.7064011211       18.2999634068       37.2496905175
  S        -4.3839892176       14.3485204718       39.9870268245
  C        -3.9003080533       17.3520770496       39.8522608446
  H        -4.1119386233       18.3998891398       39.5741335145
  H        -4.7836832601       16.9938348235       40.2975300853
  C        -2.5951575940       17.1560232638       40.7088934254
  H        -2.3284320635       18.0010287693       41.3565014140
  H        -2.5783376971       16.1970548172       41.2762660450
  H        -1.6809928943       17.0534551672       40.1391026653
