352
 i =    55400, time =    55400.000, E =        24.9888111188
  H        10.5280022217        4.8073704779       31.5874905446
  C        10.2228824809        5.8218454043       31.8675918671
  H         9.1630497875        5.8285733412       31.7335953777
  C        10.9282857647        6.8174482956       31.0163947296
  C        10.4508535682        5.9813418970       33.3543620220
  C        11.5675449363        6.2192211369       29.6846951143
  H        10.0588155786        7.4839139453       30.8561161235
  H        11.7362773778        7.3463046427       31.5077759134
  H         9.9107476428        6.8933853495       33.5528096592
  H        10.0466642093        5.0578722109       33.8226592957
  H        11.4604192120        6.2041664561       33.6473335596
  C        10.5024662957        5.4742135246       28.8344044907
  H        12.1803053125        5.3366233746       30.0845455847
  H        12.1471496883        6.9999849502       29.1624135306
  C        10.8588017916        5.5397736451       27.3521659697
  H        10.3455655614        4.5004449560       29.1874698829
  H         9.5404624470        5.9766264921       28.9914051206
  C         9.7477684903        4.9130142506       26.5046427707
  H        11.8069211661        5.0745805437       27.2807831096
  H        11.0120271479        6.5405607437       27.0190348349
  C         8.6089810946        5.8231730706       26.0420041631
  H        10.2363287481        4.6201674756       25.5812745863
  H         9.4208210950        4.0627295795       26.9928427474
  C         7.4114400056        4.9994820028       25.3848618579
  H         8.1495382419        6.3910585754       26.8872049802
  H         9.0484386560        6.4500384820       25.3247578902
  C         7.0736230455        3.6911870642       26.1107468505
  C         7.7958617543        4.3238586521       24.1236757967
  C         6.1196660698        5.7852177892       25.3417432530
  C         7.1655803611        2.6290562630       25.2200760622
  C         6.6222553592        3.2941358437       27.3987715998
  C         7.7253262612        3.0006223889       24.0199276000
  C         8.4441825831        4.9661804039       23.0613808812
  H         6.1585287013        6.5157375155       24.5005343475
  H         6.0884134531        6.2956532803       26.2711957121
  C         4.8168030822        5.0760024262       24.8752423583
  S         6.7248352326        1.0647132553       25.9205441529
  C         6.3366965200        1.9547660410       27.4074023096
  H         6.4926267537        3.9732054109       28.1616128176
  C         8.1886746366        2.3483906977       22.9319493854
  H         8.6265548851        6.0202231459       23.2442969662
  C         8.7986997395        4.3648955027       21.9027034073
  H         4.9874469968        4.5420963984       23.9289324569
  H         4.7435063155        4.2114874312       25.4595466516
  C         3.5519867119        5.9590679381       24.7571276797
  C         5.9479109209        1.2156491028       28.6376964236
  C         8.6607358353        3.0122575205       21.7655008493
  H         7.8714550616        1.3806257007       22.8997517549
  C         9.2844757866        4.7013158229       20.6479683061
  H         2.7987330968        5.5639984868       24.0698292740
  H         3.8485610105        6.9205922237       24.4458643767
  C         2.8337870368        6.2301609017       26.0671749348
  C         6.0334731102       -0.1508733920       28.8828355453
  C         5.4474399317        2.0532115984       29.7235835463
  C         8.9534378111        2.2593962988       20.5153036768
  C         9.3950258547        3.5862919209       19.7866413776
  S         9.5996464141        6.2387732708       19.9452856416
  H         2.0594545071        6.9676570582       25.8927229532
  H         3.4873317876        6.6340611599       26.7827987983
  C         2.0967753187        5.0216486165       26.6678862956
  N         6.3826377020       -1.1051884835       27.9790266478
  C         5.6080534818       -0.7173068304       30.0902820325
  C         5.0853797080        1.4938474493       30.9207902432
  H         5.3222823836        3.1176967491       29.5811731925
  C         7.8072608430        1.4947640517       19.8791472597
  C        10.1165441914        1.3157075327       20.7155314274
  C         9.7785345729        4.0274558290       18.5268913904
  C         9.8827436253        5.4105256490       18.4243231068
  H         1.2784365248        4.6645873478       25.9567360109
  H         2.6217427344        4.0907553226       26.7929183508
  C         1.3309127567        5.3933603808       27.9042189409
  S         6.2056213213       -2.5930300322       28.5922544438
  N         5.6471863955       -2.1432525202       30.0193845486
  C         5.1902449924        0.0029363920       31.2026961400
  H         4.7843109823        2.2172236364       31.6473990697
  H         7.4630070122        0.8016551204       20.5675246205
  H         8.1211370969        0.8525021232       19.0151606137
  C         6.6548420252        2.4482489735       19.4441653852
  H        10.0934790894        0.6082131617       19.8591874610
  H         9.9659442150        0.6712499952       21.5857238700
  C        11.4983013412        1.9507124187       20.7721823532
  H         9.7920653120        3.3009926077       17.7501598312
  C        10.2048274663        6.0943655997       17.1083111848
  H         0.7164492145        4.5205496733       28.1900338249
  H         0.6762921603        6.2531571513       27.8754535011
  C         2.3227303551        5.5322257825       29.1038761411
  C         4.9916239952       -0.6704085069       32.4142436567
  H         6.9946377859        3.3905019698       18.9188775156
  H         6.0307794080        2.7747363835       20.2820583133
  C         5.8621186723        1.6525148693       18.4393050988
  H        11.3961885777        2.7055697072       21.5420413534
  H        11.7288612759        2.3686981636       19.8125517483
  C        12.6762732153        1.0138337716       21.1370823743
  C        10.2695852651        7.4951093099       16.9631058030
  C        10.4878833192        5.2845343699       15.8813547926
  H         3.1063597830        4.8099548551       29.2565289033
  H         2.8658698112        6.4778205387       28.9389502536
  C         1.6030200147        5.7381457739       30.4001151589
  H         5.1966235984       -1.8161945617       32.4194648787
  C         4.7576399199       -0.2220805599       33.6818909552
  H         5.5249729015        0.6587753537       18.8431450067
  H         6.5613115679        1.4208914631       17.6515584576
  C         4.6831371538        2.4675325147       17.9102213386
  H        12.4013467800        0.3886604614       21.9789197403
  H        12.8115428663        0.3486684993       20.3652750176
  C        13.9489931067        1.8575367020       21.3004195455
  N         9.9156059205        8.4575504969       17.9570965787
  C        10.7565851797        8.0973990808       15.8095174067
  C        10.8550693274        5.9522211828       14.7067656049
  H        10.5029579007        4.1778532994       15.9230834924
  H         1.3636959492        4.7059237184       30.8117731808
  H         2.2480959912        6.2185618149       31.1123694627
  H         0.7106266882        6.4317988931       30.3968055931
  S         4.3327151780        1.3558967023       34.2735437927
  C         4.7981932364       -1.1648927120       34.8470217347
  H         4.6055738868        3.3742518810       18.4295853576
  H         4.7824083330        2.5818589111       16.8435208506
  C         3.3924358267        1.6576977291       18.2919611526
  H        13.9670986367        2.7683779014       20.7566877275
  H        14.8107033036        1.3078777080       20.8064496159
  C        14.3402643523        1.9333099005       22.7573590049
  S        10.1966787985        9.9111914792       17.3737531592
  N        10.7007847268        9.5373725677       15.8651716858
  C        11.0939801027        7.4106954181       14.6419208832
  H        11.0323700891        5.3954054128       13.8355731903
  C         4.2927953302        0.7059469730       35.8885957385
  N         4.5072652917       -0.6004395959       36.0692675236
  O         4.9340758161       -2.3595223612       34.7394506233
  H         2.4364091857        2.2130033629       18.2662560998
  H         3.4505117372        1.2656923090       19.2942084113
  C         3.1871753433        0.3762514209       17.4694622870
  H        13.5924452269        2.5790503888       23.2317157598
  H        14.1568065789        1.0127485740       23.2998713304
  C        15.6820904466        2.5124041927       22.9835722748
  C        11.3013521957        8.1549111387       13.4383370042
  S         3.7812904658        1.5522252807       37.3441847093
  C         4.4697329025       -1.3632172073       37.3483875316
  H         2.6905113007        0.6795453650       16.6163631560
  H         4.1254154338       -0.0801213180       17.0892960496
  C         2.4240208374       -0.7551159236       18.1556263311
  H        15.6838163328        3.0499348636       23.9370871609
  H        15.7459963637        3.2524122722       22.1864327265
  C        16.7068589241        1.4468727311       22.9201134365
  H        11.1360351152        9.2371153930       13.5094243947
  C        11.8721304498        7.8156380835       12.2141019291
  H         3.7904290770       -0.8886540496       38.0671247994
  H         4.1668018487       -2.3461653110       37.1200507852
  C         5.7971600640       -1.3504816620       38.1012197972
  H         1.4417362013       -0.3976864677       18.4526864012
  H         2.8720944571       -1.1611503071       19.1105394832
  C         2.3446833561       -1.9105281552       17.1268830571
  H        16.7025602926        0.9993225821       23.9130912455
  H        16.4860401502        0.7599562470       22.1257201298
  C        18.0942857828        2.1134807640       22.6346186488
  S        12.4086552728        6.2486057362       11.7975181944
  C        11.9782762368        8.8665169564       11.1584219954
  H         6.2902055735       -2.2637058276       37.8675234368
  H         6.4033314951       -0.4474252011       37.8289164996
  H         5.6964901902       -1.2593234269       39.1860209829
  H         3.3039993145       -2.4148266794       17.1675727749
  H         2.0285066372       -1.6012039567       16.1162446230
  H         1.6820031331       -2.6111103626       17.5654547666
  H        17.9850922206        2.8211614572       21.8203927219
  H        18.7928427137        1.3482656589       22.4085737334
  H        18.2722679459        2.6481116125       23.4455973720
  C        12.8030687591        7.0125140697       10.2322550118
  N        12.5504508356        8.3284371108       10.1136840611
  O        11.5491183406       10.0219878598       11.1785059288
  S        13.5182812314        6.1986668291        8.7923973879
  C        12.6388641710        9.1232687827        8.8706911634
  H        12.7866584351       10.1352491438        9.0359666225
  H        13.5074828913        8.8865183237        8.2639187797
  C        11.3360413982        8.9330798114        8.1031316322
  H        10.4515300214        9.0980459862        8.7593742859
  H        11.3263447506        9.7061478008        7.3575867731
  H        11.4008107847        7.9799746934        7.6856597245
  H        -1.2586936067       12.7949787063       17.2134238771
  C        -1.8878958039       13.5593917126       16.8096561940
  H        -1.2183296747       14.2061487301       16.3023188493
  C        -2.4246740431       14.3352568575       18.0353397065
  C        -2.8832870216       13.0548182260       15.7046282855
  C        -2.9786958071       13.4436379892       19.0402761287
  H        -1.6150588716       14.9602800881       18.4715259385
  H        -3.1546652085       15.0665748383       17.6327192675
  H        -2.2952611164       12.2947813283       15.1210547910
  H        -3.8014615443       12.5743268797       15.9330335830
  H        -3.0701405116       13.9306291504       15.0120885236
  C        -1.8968615437       13.1419212325       20.0108191138
  H        -3.4071401714       12.4881680960       18.5900592557
  H        -3.7355655563       14.0354652036       19.5952861787
  C        -2.2633057201       13.2757406120       21.4366900717
  H        -1.6212828054       12.0710600255       19.8117660172
  H        -0.9428669970       13.6852220225       19.8419118338
  C        -1.2469433788       12.6953999533       22.4131905444
  H        -3.3477728496       12.9173084063       21.6246116841
  H        -2.3442085209       14.3299326609       21.7267738999
  C         0.0343678051       13.5831149064       22.6737082862
  H        -1.7748655456       12.6018820537       23.3264440479
  H        -1.0047078882       11.6961777621       22.0109066204
  C         1.1077190413       12.7788993275       23.4580907519
  H         0.3907870358       13.7978974579       21.6882981506
  H        -0.1992641000       14.4752597799       23.2477486193
  C         1.5356598625       11.3918525584       22.7920228288
  C         0.5974059887       11.9551022153       24.6383022231
  C         2.2319269086       13.7348936338       23.7693807778
  C         1.1021302091       10.2964112420       23.4815080175
  C         1.9031968766       11.0683131170       21.4857385181
  C         0.7586180536       10.6314019701       24.7516554021
  C         0.1519820727       12.7047056315       25.7278229886
  H         2.4310241948       14.1437678873       22.7700368132
  H         1.8546742454       14.5288688726       24.4204261189
  C         3.5343598656       13.1726999433       24.2312154352
  S         1.4431203728        8.7770868075       22.6834902777
  C         2.0827891098        9.7327140107       21.3983191030
  H         2.2498274749       11.8175017318       20.7537348873
  C         0.4487129010       10.0423200431       25.9385464099
  H         0.1719007407       13.7881018086       25.7361273122
  C        -0.1393505074       12.1048078208       26.9106631697
  H         3.8163318543       12.3491033535       23.5195216466
  H         3.2761555760       12.7546057551       25.2021649492
  C         4.7634693878       14.0598171292       24.4720604279
  C         2.6232213599        9.0454378157       20.1494707712
  C        -0.0027269255       10.7495435921       27.0530332951
  H         0.5376513126        8.9934230611       26.1633920853
  C        -0.5122398088       12.4857232597       28.1906284030
  H         5.3750505420       13.5876965049       25.2468221968
  H         4.2701000041       14.9992992341       24.9063281259
  C         5.5607708350       14.1773780226       23.1618703622
  C         2.5556312766        7.6653160887       19.8376119828
  C         3.3333152481        9.8570609307       19.1414347242
  C        -0.4027356935       10.0618739308       28.3168801934
  C        -0.7115801891       11.4062821513       28.9971927651
  S        -0.9121572653       14.0436502235       28.8803126863
  H         6.2915044341       14.9693005027       23.2003931104
  H         4.8032982286       14.3498045686       22.4234513223
  C         6.4715000030       12.9742233202       22.7482551411
  N         1.9834160745        6.6842573983       20.7207721998
  C         2.8734795183        7.1324518478       18.6190947607
  C         3.6826179209        9.3288469766       17.8780501024
  H         3.4298300153       10.9231051924       19.2006367057
  C         0.7201381984        9.3640037296       29.0736737928
  C        -1.7395941170        9.2747183530       28.1734152882
  C        -1.0763524382       11.8586378549       30.2935319999
  C        -1.2493691180       13.2365951758       30.3715744801
  H         7.1926938702       12.8174058558       23.5093808604
  H         5.9340096470       12.0868298276       22.7366527244
  C         7.2091722954       13.0810369878       21.3048734742
  S         2.0231270298        5.1998704828       19.9928022934
  N         2.6554607801        5.7239604770       18.5952623709
  C         3.4316401523        7.9030020219       17.5723218500
  H         4.1750796466       10.0193078702       17.1913562391
  H         1.1132587698        8.6316695710       28.4296809033
  H         0.2668434522        8.8979628431       29.9927543611
  C         1.8914609008       10.2694628498       29.5361987286
  H        -1.5325244475        8.3164785421       27.6847750267
  H        -2.1306218624        8.9642808023       29.1128671523
  C        -2.7918368131       10.1902864875       27.5322199219
  H        -1.3246197036       11.2005381225       31.0887941408
  C        -1.5998308855       14.0540743231       31.6055632536
  H         7.8520850005       12.2302081310       21.2476851644
  H         7.9003946222       13.9178400711       21.2358835428
  C         6.2167893026       12.9462928504       20.0685276620
  C         3.6380135847        7.2973291122       16.3038212856
  H         2.2177493109       10.7229045825       28.6289158946
  H         1.5096585271       11.0095386871       30.1443168575
  C         3.0062837023        9.4623745303       30.0916844357
  H        -2.4882169140       10.3664667260       26.5080917794
  H        -2.9364975406       11.1701261199       27.9884524591
  C        -4.1744725334        9.6212655728       27.5806958618
  C        -1.7075392881       15.4461092670       31.7212017986
  C        -1.7452023588       13.3253510401       32.8318328127
  H         5.7844145138       11.9556044156       20.0407141507
  H         5.2257015386       13.5022137383       20.0762823851
  C         6.9517849317       13.1439834628       18.7570879017
  H         3.5273056560        6.2401484581       16.2794967114
  C         3.9962386239        7.7631970532       15.0922792987
  H         3.1892321606        8.5696766101       29.5224174547
  H         2.6100590271        9.1604860152       31.0579068397
  C         4.3672162658       10.2373249548       30.2400271060
  H        -4.0888742225        8.6437073614       27.0450027805
  H        -4.5452364055        9.5286217928       28.6040014927
  C        -5.1014824374       10.4833635013       26.8206507214
  N        -1.4684602598       16.2807807302       30.6378408970
  C        -1.9507047305       16.1218188922       32.8553240635
  C        -2.1383379608       13.9437761690       34.0236563661
  H        -1.7019847342       12.2422958092       32.8448265148
  H         6.3279041025       13.3667773847       17.8839413178
  H         7.4723483840       14.1317912731       18.8141189905
  H         7.6325196985       12.3872891444       18.5862019767
  S         4.1475884871        9.3880409405       14.6789398674
  C         4.1241509440        6.7837202473       14.0450899273
  H         4.6446526646       10.9662981189       29.4846555249
  H         4.2856217952       10.8406315249       31.1621338179
  C         5.5578611645        9.2705528051       30.3818514844
  H        -4.5964733849       10.7102883668       25.8252782086
  H        -5.2262121308       11.4881037476       27.2308027025
  C        -6.4347777152        9.8079179813       26.4074185438
  S        -1.4069134563       17.7858541770       31.1320375208
  N        -1.7694278008       17.5304781606       32.6770417916
  C        -2.1917329056       15.4595979591       34.0367959064
  H        -2.1575386616       13.3288720146       34.9293911577
  C         4.5474171565        8.7825426923       13.0143120449
  N         4.5230643044        7.4098357575       12.9414429132
  O         3.8262609280        5.6146441541       14.0434051498
  H         6.4768419953        9.7923946605       30.6274420120
  H         5.7910404323        8.7854390438       29.3976254696
  C         5.3288201883        8.2623870644       31.5344627873
  H        -6.0034681805        8.9365424985       25.9015827532
  H        -6.9634240454        9.3871598579       27.3337364308
  C        -7.3082886985       10.5263626236       25.4169052130
  C        -2.4430088796       16.3479130320       35.1753423417
  S         4.8461289823        9.8212231231       11.6167006029
  C         4.5250095481        6.7394297913       11.6214135053
  H         5.2147149638        8.8271871531       32.4451698421
  H         4.3811950768        7.6866979127       31.4286940590
  C         6.3821802136        7.1457030504       31.6252899808
  H        -6.7552840718       10.6965960871       24.4675528493
  H        -7.5539836037       11.4929216300       25.7753366658
  C        -8.6069560189        9.8127677626       25.1791886017
  H        -2.1691843967       17.4138995894       35.0941270102
  C        -3.0329818546       15.9822016430       36.3713288154
  H         5.2237017581        7.2422477284       10.8883676248
  H         5.0556054667        5.7569624312       11.6715677410
  C         3.1292854475        6.6426522245       11.1075976966
  H         6.7844640567        6.8266827853       32.6008828697
  H         7.2461771987        7.4882409213       31.1168496563
  C         5.8373456174        5.9300027384       30.8874297025
  H        -9.1567804008       10.1937389795       24.3537397235
  H        -8.4541432805        8.8130281678       24.7560276737
  C        -9.5098623892        9.7580009391       26.4154220049
  S        -3.5080569397       14.4235433134       36.9990260072
  C        -2.9492469899       17.0677419777       37.4032950041
  H         2.4564810265        6.4231370726       11.9538713344
  H         2.8099593740        7.5423441725       10.5702201586
  H         2.9816563120        5.8888739711       10.3706437280
  H         4.9365760032        5.5462370944       31.4063136483
  H         6.5883039074        5.1077698580       30.7448761191
  H         5.5361326949        6.3297903558       29.9483963247
  H        -9.1988383191        9.0171652524       27.1215124299
  H       -10.5467743033        9.6681978513       26.1809910958
  H        -9.4759482556       10.7224471710       26.9486042391
  C        -3.7867258606       15.2271046670       38.4769726654
  N        -3.5394292205       16.5661056298       38.5029275648
  O        -2.5500678332       18.2436803007       37.2249280594
  S        -4.1330856266       14.3540013982       40.0130280563
  C        -3.4350315902       17.4983367961       39.7012650149
  H        -3.6154940383       18.5520846102       39.4744478432
  H        -4.1264726368       17.1310411639       40.4065977548
  C        -2.0425465207       17.3266832184       40.3585103661
  H        -1.9303546181       18.1760901903       41.0458885712
  H        -1.9709303241       16.3683877002       40.8134262011
  H        -1.2425687950       17.4796412275       39.6090794787
