352
 i =    85400, time =    85400.000, E =        25.1428382726
  H        10.9745321859        7.4304055125       31.7284260708
  C        11.6805061787        6.6138872252       31.8896963395
  H        12.6188719812        7.0999587578       32.1871535411
  C        12.0353337789        5.8468903488       30.6285178389
  C        11.1765855137        5.7742973490       33.0052093407
  C        10.9239462457        5.0180228446       29.9860234424
  H        12.3551371767        6.5117353881       29.7714669363
  H        12.9038773530        5.2588474024       30.9858718724
  H        11.3386593543        6.2119803065       33.9933330878
  H        10.1371459837        5.5469405555       32.9918524657
  H        11.7009150206        4.8011211734       33.0461342641
  C        10.0376710716        5.8885167694       29.0425385105
  H        10.3730564382        4.5968388445       30.7960118288
  H        11.3698380290        4.1971179572       29.4251330049
  C        10.6248886788        5.9924908273       27.6366234900
  H         8.9816588289        5.5326738033       29.1601152483
  H         9.9334850887        6.8307518180       29.4802394502
  C         9.8685177702        5.2465071313       26.6583465624
  H        11.7362390774        5.8014659953       27.6567675733
  H        10.5964566505        6.9840980421       27.3939082926
  C         8.6448293752        5.9836242049       26.0673641514
  H        10.5387267831        4.8556020168       25.8550714355
  H         9.6483104494        4.4165839938       27.2036973735
  C         7.5113850489        5.2133319429       25.2599629833
  H         8.2332027454        6.6339283724       26.8433860474
  H         9.0373641319        6.7150120035       25.3277507041
  C         7.1343245503        3.8970306127       25.9889257424
  C         7.9455633157        4.4329157534       24.0925048078
  C         6.2531686539        6.0902192438       24.9748955903
  C         7.3511344101        2.7705095641       25.2092359907
  C         6.6326094922        3.5768922969       27.2381409136
  C         7.8838250325        3.0975777731       24.0260058931
  C         8.4689552920        5.0238542450       22.9800055779
  H         5.6018744486        5.4317046590       24.2848120211
  H         6.5145988026        6.9785970304       24.3332616557
  C         5.6162091650        6.5876925444       26.2421849206
  S         6.9230138072        1.3119197473       26.0161423083
  C         6.4525969013        2.2823641851       27.4239392925
  H         6.4765613772        4.2523093758       28.0396659613
  C         8.3059790595        2.3766139441       22.9347728714
  H         8.5020373066        6.0669408011       23.1140906041
  C         8.9099612812        4.4010662773       21.8653993684
  H         5.7498447570        5.9166120587       27.1023953181
  H         6.0233318151        7.5719136245       26.5851591291
  C         4.0380651227        6.6210930945       26.0398434509
  C         5.9323221252        1.6097440303       28.6824103259
  C         8.8523813749        3.0692938136       21.7902124632
  H         8.1887447763        1.3157716081       22.8818868139
  C         9.3361466536        4.8072299468       20.6602145558
  H         3.7278303571        5.6474746290       25.6339617652
  H         3.7801390401        7.3021520758       25.2151017288
  C         3.1645098243        6.8008466154       27.2845281078
  C         6.1020064266        0.2902547483       29.0621724601
  C         5.4515554295        2.5165940201       29.7729279683
  C         9.3373428189        2.3316382958       20.6146530461
  C         9.5721374519        3.6548390361       19.9127987278
  S         9.6583599552        6.2961365920       19.9048449889
  H         2.5855511877        7.6358949161       27.0992172710
  H         3.7274702683        7.1189731742       28.1314236888
  C         2.4108060283        5.4537632910       27.5651390912
  N         6.5886107081       -0.7354119082       28.2585348914
  C         5.8690806239       -0.1836150012       30.3657130267
  C         5.2814615732        2.0649158755       31.0747944447
  H         5.1548341804        3.5426203406       29.5853665264
  C         8.1308667524        1.6142715425       19.9518361768
  C        10.5161333971        1.5198411012       20.8317846136
  C        10.0241105465        4.0769746840       18.6229525230
  C        10.0721983898        5.4096559753       18.4937307354
  H         2.0784882093        4.9397774317       26.6829486640
  H         3.2618395407        4.8484211102       27.9644562422
  C         1.3429142240        5.5282864183       28.6809974669
  S         6.7857315879       -2.0987512169       29.0670255966
  N         6.3390621285       -1.5354906895       30.5069742221
  C         5.4210147877        0.6312651821       31.3733215073
  H         4.9389715795        2.7774233645       31.8154172133
  H         7.7786270969        0.9073329956       20.7185142776
  H         8.5497755501        1.0612972948       19.1448071416
  C         6.9333050189        2.4425452726       19.5079738846
  H        10.8905896449        1.1163972525       19.8079794408
  H        10.1516335388        0.8155571126       21.5596405955
  C        11.6803604294        2.2847945372       21.4862344605
  H        10.2462521751        3.3344556087       17.8833042682
  C        10.5684463941        6.1083955357       17.1889686575
  H         1.0105944394        4.5541764163       28.8857117564
  H         0.4194691446        6.0718243752       28.2821024755
  C         1.7912966805        6.1706284404       30.0299162116
  C         5.3513695935        0.0037609053       32.6534325126
  H         7.0894792764        2.9927327386       18.5964362243
  H         6.8205448111        3.1910373250       20.2622713489
  C         5.6733544254        1.5268201535       19.5341760985
  H        11.3408413695        2.6457095951       22.5097174091
  H        11.8416545479        3.2024713807       20.9373128706
  C        12.9782506466        1.4145833287       21.4833428126
  C        10.5896228061        7.5202517227       17.0423917952
  C        10.9321929742        5.3738954184       15.9708618046
  H         2.5079974113        6.8609148344       29.9178158677
  H         0.9821756005        6.7678156553       30.4971557089
  C         2.2023510557        5.0799930907       31.0098668395
  H         5.4971117823       -1.0271733905       32.7055410118
  C         5.0304256165        0.4520806928       33.9328499527
  H         5.2679231876        1.5105598613       20.6139105541
  H         6.1254293644        0.5417633179       19.2990415532
  C         4.5968361592        1.9730043659       18.4723002575
  H        12.9238025166        0.7770418448       22.2856028730
  H        13.0836602912        0.7674090721       20.6162018666
  C        14.1474097659        2.3284049511       21.7110875395
  N        10.1578571347        8.4264997340       17.9976838908
  C        10.8582452102        8.1471361602       15.8553045754
  C        11.1507454571        6.0134937905       14.7450258909
  H        10.8375205794        4.3222432451       16.0580270717
  H         2.6446343793        5.4527013285       31.9025605068
  H         1.4752617438        4.3334186039       31.2156703326
  H         2.8389639302        4.3999260251       30.4463172616
  S         4.7939817579        2.0855471634       34.4407165355
  C         4.8626930030       -0.6128097019       34.9876863749
  H         4.5333793418        3.0068590180       18.5606805529
  H         5.0459304274        1.9945824247       17.4585179310
  C         3.2174744095        1.2746092836       18.5112792531
  H        13.7444231658        3.2493024865       22.1886254209
  H        14.5427314806        2.6185350031       20.7909126573
  C        15.1928743651        1.6262165565       22.5960831869
  S        10.1018545481        9.8928883371       17.3466261859
  N        10.7266917799        9.5699255665       15.8951364223
  C        11.1502970710        7.4577001119       14.6599720918
  H        11.5077273930        5.3742179087       13.9352232426
  C         4.3020878940        1.3497541811       36.0525100657
  N         4.4229794461        0.0049665039       36.0914992819
  O         5.0824626145       -1.8186602735       34.8520145354
  H         2.6932668083        1.4722396192       17.5809013645
  H         2.5776566065        1.6906475881       19.2611239712
  C         3.2975197983       -0.2901948229       18.7148085512
  H        14.8026279771        1.0594790266       23.4023608853
  H        15.8229690828        1.0146898056       21.9692075354
  C        16.0458058295        2.6311458388       23.2748918740
  C        11.6677174227        8.2364641058       13.5591176020
  S         3.9328609449        2.1673454954       37.6156045211
  C         4.4995776121       -0.8117951529       37.3330486379
  H         4.1950653528       -0.7105865309       18.2742508851
  H         3.4211968969       -0.4222547224       19.7555441327
  C         2.1276748268       -1.0825992346       18.2069973608
  H        15.4907654399        2.8302778959       24.1965029961
  H        16.0964047514        3.5484962613       22.6229109998
  C        17.4784193593        2.1099593700       23.5777966796
  H        11.2745581019        9.2250818258       13.7078250660
  C        12.1815536899        7.8432579410       12.3575631725
  H         3.7897852682       -0.5457875321       38.1096791987
  H         4.4620298996       -1.8513113355       37.3166911744
  C         5.8035117497       -0.5419559234       37.9697017897
  H         1.2782829604       -0.4581820351       18.2101019034
  H         2.0772436584       -1.9316830601       18.9009424518
  C         2.3364879374       -1.5922017697       16.7417661627
  H        17.7662876796        2.9497631401       24.1780488927
  H        17.5475799583        1.1934960655       24.1320284287
  C        18.3611102660        2.0218452439       22.3785828539
  S        12.6880139669        6.2646476163       11.8589105348
  C        12.2380809537        8.8622246733       11.3635243026
  H         6.4648885975       -1.3594307348       37.6962503238
  H         6.3832417028        0.4100870327       37.7318442738
  H         5.6655044195       -0.6087097618       39.0315858514
  H         1.3792251641       -1.8097832446       16.2704110666
  H         3.0433905968       -2.4368165883       16.5561512015
  H         2.7120736318       -0.7412690475       16.1136985633
  H        19.4101313133        2.1281301076       22.5963475505
  H        18.1900425330        2.9086951542       21.6618435540
  H        18.1497690518        1.1332074877       21.7828431410
  C        12.9534571580        6.9801156939       10.2271901118
  N        12.7701112410        8.3423748642       10.2045091029
  O        11.7251565807        9.9824698993       11.4448779808
  S        13.5289124956        6.1582538602        8.7541592988
  C        12.8998555593        9.1171133896        9.0098729881
  H        13.3493209815       10.0413680189        9.2924429469
  H        13.5432022772        8.6157248883        8.4083346183
  C        11.4116721898        9.3512604172        8.4600543592
  H        10.6029076782        9.7567187433        9.1458778393
  H        11.4573542110       10.0807054920        7.5856877939
  H        10.9728444999        8.4680808850        7.9130305903
  H        -3.6396029065       15.0839905931       16.2728368655
  C        -3.4080774711       14.0376990098       16.4310055138
  H        -4.2316301000       13.5704038124       16.9101358965
  C        -2.2737770003       13.8194884530       17.4805444300
  C        -3.0704376507       13.6084406924       14.9529023407
  C        -2.7377425894       14.0304218118       18.9462918005
  H        -2.0322589156       12.8205753605       17.3901102383
  H        -1.3317100022       14.3662268426       17.1229982692
  H        -2.2992833930       14.2597053768       14.5398682173
  H        -2.6723856441       12.5960335860       14.8853207328
  H        -3.9857451828       13.7115871835       14.3317046135
  C        -1.6041726528       13.6718339899       19.9781875817
  H        -3.6043321129       13.4536913353       19.2647545496
  H        -3.1159434744       15.0429916096       19.0886409343
  C        -1.9405100691       13.9019396597       21.4868335612
  H        -1.4044349577       12.6373153816       19.8898910260
  H        -0.6845248022       14.2179159102       19.7070177625
  C        -0.9495043486       13.2393969378       22.4612813452
  H        -3.0059524050       13.5406391107       21.5101966644
  H        -1.8946020947       14.9606534511       21.6961285227
  C         0.2731822711       14.1894187422       22.7241802670
  H        -1.3083225834       12.7705467952       23.3484662914
  H        -0.5506056159       12.4082996263       21.8928197343
  C         1.4866498282       13.5022596060       23.4765717769
  H         0.6565726354       14.6161217599       21.7678704711
  H        -0.1162519699       15.0518290522       23.1690470204
  C         1.9739457903       12.1698366692       22.7742792468
  C         1.1319990012       12.7382918599       24.7130880006
  C         2.7494902424       14.4027487620       23.6063353051
  C         1.7712804646       11.0891162602       23.6260205589
  C         2.4432490384       11.7982124670       21.4917727167
  C         1.2402972931       11.4247150151       24.8211252883
  C         0.6188462717       13.4351424993       25.8368745621
  H         3.0342986323       14.6071646581       22.5802471323
  H         2.3423729458       15.2933466027       24.2432134460
  C         3.9869041541       13.7885160617       24.2955903025
  S         2.1175317530        9.5548275989       22.7240282045
  C         2.5884674690       10.4643706791       21.3172341052
  H         2.5776480955       12.6183740550       20.7884052116
  C         0.8613382373       10.8021652297       25.9724161298
  H         0.5010544409       14.4645970707       25.6175710391
  C         0.2375257592       12.8311019289       27.0072458591
  H         4.0026910917       12.7594021520       23.9185169525
  H         3.7673591019       13.8702743823       25.2888401823
  C         5.3214236644       14.5749446083       24.1213838149
  C         2.8041068780        9.8026754153       20.0036420818
  C         0.3036119964       11.4993384530       27.0891687998
  H         0.9670901056        9.7429785488       26.1140987896
  C        -0.2104799031       13.1160897174       28.3201617514
  H         5.9528048918       14.2515397303       24.9050409544
  H         5.1153255030       15.6714101298       24.3808104164
  C         5.9418778862       14.5856329318       22.7432409295
  C         2.9038674399        8.4376190817       19.8008644365
  C         3.1848362525       10.6814213875       18.8896065870
  C        -0.1230949020       10.7420923319       28.3496698544
  C        -0.5130151622       11.9896972947       29.0623920495
  S        -0.5570270922       14.5407160899       29.1100508527
  H         6.9598715505       15.0221624284       22.8592433407
  H         5.3412235137       15.0811423066       22.0508928801
  C         6.1912322578       13.1849785642       22.1653230988
  N         2.7088886258        7.3970908683       20.7013900245
  C         3.1478302272        7.8843743845       18.5240085887
  C         3.4943502107       10.1381468208       17.6083347210
  H         3.2228023784       11.7681866945       19.0292960692
  C         1.0346670167       10.0159280881       29.0851252477
  C        -1.2518306303        9.7254810502       28.1197253210
  C        -0.9982253777       12.2855327136       30.3543882009
  C        -0.9274616924       13.6695387576       30.5394477901
  H         6.6957947105       12.5568453834       22.9512794068
  H         5.3444519156       12.6905639029       21.7759713788
  C         7.1125772459       13.1944231583       20.9685787388
  S         2.7613566313        5.9504057491       19.9661076033
  N         3.1887438246        6.5160269360       18.4742425923
  C         3.4794751319        8.6526988210       17.3987267730
  H         3.6237287047       10.7904802920       16.7955360082
  H         1.3309502339        9.0903900525       28.5072196980
  H         0.6969413681        9.6329144947       30.0544744638
  C         2.2636819279       10.8680156658       29.3917689708
  H        -1.1177683257        8.9923222029       27.3545318361
  H        -1.4057857374        9.1983371488       29.0702023097
  C        -2.5365527919       10.3238727209       27.7845839552
  H        -1.1155184633       11.5021300301       31.0924672103
  C        -1.2306773468       14.4100069966       31.8627430189
  H         7.7520748337       12.2820031895       21.0655400858
  H         7.7826273873       14.0468552886       20.9988354319
  C         6.2813110338       13.2837302000       19.6312962427
  C         3.8970630508        7.9626834065       16.1881541519
  H         2.9029724369       10.9518795865       28.5497865859
  H         1.9520987037       11.9109535713       29.6325631609
  C         3.1330798776       10.2312383753       30.5741142803
  H        -2.4662234270       10.9631412265       26.8857450861
  H        -2.7012844139       10.8966907865       28.6892856916
  C        -3.7086381408        9.3269507858       27.6003205282
  C        -1.2598441917       15.8524573100       32.0772978012
  C        -1.4907662691       13.6023723377       33.0926261233
  H         5.7463676748       12.3801682941       19.4637665176
  H         5.5468649393       14.0903107905       19.7134233268
  C         7.1171835330       13.5919412568       18.4184804924
  H         3.9703396137        6.8865548530       16.2713850169
  C         4.1801926411        8.3589291427       14.9409629743
  H         3.1281970068        9.1102896859       30.4457726638
  H         2.6136631272       10.4461892876       31.4895777311
  C         4.4767631519       10.9629557797       30.5595611321
  H        -3.4434998053        8.7260797606       26.7418472155
  H        -3.7036921798        8.6913178668       28.5106923099
  C        -5.0013003708        9.9893889040       27.4645995426
  N        -1.0862231319       16.7621096319       31.0115025971
  C        -1.5895224214       16.4810316053       33.2309474276
  C        -1.9578991413       14.2895063638       34.1935630625
  H        -1.4886041485       12.4918727759       33.1084609423
  H         7.5826202896       14.5589901732       18.5227160144
  H         7.8538375085       12.7453836004       18.2377144066
  H         6.6209669670       13.7441026239       17.5405480946
  S         4.4394897037       10.0208678800       14.3719107374
  C         4.4308849807        7.3504412298       13.9150202076
  H         4.7056119815       11.2731994041       29.5663035943
  H         4.3391790225       11.8069051756       31.1827896547
  C         5.5825252185       10.0923294330       31.0193702003
  H        -4.7942098361       11.0971009239       27.6438866633
  H        -5.7002078550        9.6012319362       28.1904279023
  C        -5.5104529836        9.7778331701       25.9612088808
  S        -1.1332917222       18.2956744463       31.5472015404
  N        -1.5438010937       17.9249369061       33.0771986481
  C        -1.9975220924       15.7978820009       34.3816997238
  H        -2.3413941787       13.6892574179       35.0408811455
  C         4.6559897150        9.3442173972       12.7727628926
  N         4.6972919372        7.9939546689       12.7701936764
  O         4.0904129523        6.1458009119       13.9875708487
  H         5.2756338840        9.6279891636       31.9999813393
  H         6.3721773647       10.6837494301       31.2876379087
  C         5.8779309552        8.9297175810       29.9783863678
  H        -4.7224755079        9.5110087599       25.2851294259
  H        -6.2129677566        8.9705617709       25.8619302924
  C        -6.3127538204       10.9570131498       25.4405706140
  C        -2.4158339069       16.5342467173       35.5618913586
  S         5.0620619055       10.2204873077       11.2880256851
  C         4.6845407627        7.2468007461       11.5175029883
  H         5.1517478810        8.9629985910       29.1997419153
  H         6.8362880358        9.1644507310       29.5424878983
  C         5.8840261122        7.6253501208       30.5053528392
  H        -6.2037866342       11.0543132169       24.3639052033
  H        -5.8880040426       11.8601553225       25.6565809463
  C        -7.7316015007       10.9450469020       25.9223305320
  H        -2.3797507642       17.5945164520       35.4182549537
  C        -2.9374070159       16.0994774882       36.7854499387
  H         5.5539053484        7.5146555581       10.8342949602
  H         4.9446496903        6.1969054447       11.6788726523
  C         3.3392974862        7.1856569582       10.7298556408
  H         5.9982950716        6.9416085991       29.6288558214
  H         4.8734280896        7.4190539769       30.9195416651
  C         7.0205106748        7.4813779649       31.5142666164
  H        -7.9326991625       10.9006116092       26.9931193432
  H        -8.1788923806       11.8690584823       25.6855640641
  C        -8.5808288768        9.8876486492       25.1881512160
  S        -3.3060714793       14.4926251890       37.2332637803
  C        -3.1340977145       17.0882638774       37.8556393670
  H         3.0433430537        8.1369173430       10.2913858086
  H         3.3074921911        6.4088577977        9.9521063564
  H         2.5301185415        6.9652229045       11.5090487131
  H         7.1216458626        8.2799814996       32.2761535868
  H         7.9858711997        7.4968676263       31.0291387655
  H         6.9769989993        6.5560174289       32.1068917726
  H        -8.7548159058       10.4672577131       24.2496950874
  H        -9.6924411162        9.8009231567       25.5119415898
  H        -8.2125856692        8.9087382460       24.9980588217
  C        -3.9133264077       15.2227258293       38.7291021875
  N        -3.7377985550       16.5219055498       38.8475931540
  O        -2.9262635035       18.2705478669       37.7843061235
  S        -4.5760317465       14.2914763310       40.1698849681
  C        -3.8837634147       17.0925140516       40.1511945072
  H        -4.1648915477       18.1610524507       39.9921572664
  H        -4.6797755420       16.8106636131       40.8466535631
  C        -2.5475222165       17.0522233740       40.8918861411
  H        -2.5787403568       17.6576678274       41.7856036164
  H        -2.4398450361       16.0766233051       41.3857610028
  H        -1.6957217695       17.3584625173       40.3000504371
