352
 i =     7400, time =     7400.000, E =        25.6665408395
  H        12.3087260137        7.3261040289       32.6700758642
  C        11.7543404249        6.3859751066       32.3217135986
  H        12.6360853355        5.7858938158       31.9680225689
  C        10.8296022452        6.6069135347       31.2306831587
  C        11.1767290091        5.7231481547       33.6212925306
  C        10.8486045160        5.4827517825       30.1709819768
  H         9.8179113067        6.8131658290       31.6589259409
  H        11.0911592977        7.5673337563       30.7173751868
  H        10.8642976870        4.7215004777       33.4605078504
  H        11.8278795406        5.8189456046       34.4784493213
  H        10.2473478474        6.2991721632       33.8731275818
  C         9.8784081913        5.7864763667       28.9923931846
  H        10.5437451220        4.5240612439       30.5431114423
  H        11.9038582964        5.3620540606       29.8881089251
  C        10.5775477802        5.5175164696       27.5859639990
  H         9.0285715857        5.1225513671       29.0443837123
  H         9.3671666390        6.6994563673       28.9409405454
  C         9.6855044426        4.8540663201       26.5899383298
  H        11.4650224817        4.8947599734       27.7321542083
  H        11.0510530233        6.3695574519       27.1091089143
  C         8.4540152649        5.7551483058       26.3750106345
  H        10.0665085225        4.6910742652       25.5845567392
  H         9.3387840705        3.8817822871       26.9858462480
  C         7.3356948150        5.0375384527       25.5584518108
  H         7.9815289647        6.1455411066       27.2752443999
  H         8.7732009613        6.6214245066       25.8072487335
  C         6.8975480250        3.6878291139       26.2244540118
  C         7.7015546063        4.2912172235       24.3314785519
  C         6.1467805806        5.9568964029       25.3814383747
  C         7.1379756485        2.5610440191       25.4042994810
  C         6.4437570402        3.3316678032       27.4869704971
  C         7.5912625054        2.9718469310       24.2045668361
  C         8.1219942343        5.0585322309       23.2126602704
  H         6.4598888444        6.8965015127       24.9312030572
  H         5.7099617290        6.3405052004       26.3035153258
  C         4.9623216504        5.2974529438       24.6436158930
  S         6.7986292477        1.0840529192       26.2166890255
  C         6.3011733842        1.9753842264       27.5791525004
  H         6.2003724924        4.1428729919       28.1614256503
  C         8.0259570227        2.4193322128       23.0071013548
  H         7.9777607325        6.1254339173       23.2618127287
  C         8.4437758022        4.5233635714       22.0115847307
  H         5.2264328487        4.8605306213       23.6880191111
  H         4.7365423835        4.3840399688       25.1729010413
  C         3.6785976218        6.0955518080       24.4954074177
  C         6.0207411856        1.2829364224       28.8538228378
  C         8.3335495234        3.1892808027       21.9148777716
  H         8.1809936502        1.2830256286       22.9198400493
  C         8.7518063213        4.8520412892       20.6992496518
  H         2.8779081199        5.7573979337       23.8474746626
  H         4.0251432037        7.1268258205       24.0661140939
  C         2.9173099582        6.4463549906       25.7786902818
  C         6.0009596151       -0.1416865434       29.1002230465
  C         5.6900908057        2.0758119468       30.0986186386
  C         8.7975911980        2.4772545840       20.6262283986
  C         8.9469831732        3.8044115430       19.8845045325
  S         9.1818033527        6.3317266238       19.9550295465
  H         2.2622682905        7.2954737417       25.5766198377
  H         3.5250409823        6.7277306296       26.6877883999
  C         2.0892232207        5.1889194297       26.1837094934
  N         6.2596432699       -1.1338502784       28.1195193208
  C         5.7121513496       -0.7060463157       30.3274276391
  C         5.3732535630        1.5666573929       31.3117216403
  H         5.6645529089        3.1481624639       29.9439619415
  C         7.6587810679        1.5755743876       20.0006673266
  C        10.1538334894        1.7906940518       20.7857966842
  C         9.1240647828        4.1703409417       18.5738377366
  C         9.3833650181        5.4920422705       18.4325121661
  H         1.3447117824        4.8420553074       25.3934952168
  H         2.7806152964        4.2997835673       26.4174176851
  C         1.2156881785        5.5991760635       27.3436655210
  S         6.3798865909       -2.5823201238       28.9259790105
  N         5.9064899413       -2.0881736565       30.4080150247
  C         5.4106369663        0.0443901957       31.4856953481
  H         5.2799133018        2.1809920618       32.1245296870
  H         7.3053811324        0.7223182355       20.6206288804
  H         7.9594585506        1.1147401354       19.0907385107
  C         6.3027976421        2.2844677385       19.7518562163
  H        10.6069809179        1.4411544535       19.8828683542
  H        10.1108143439        0.8704336865       21.3290179386
  C        11.2984219225        2.4962888039       21.5316416990
  H         9.1889909120        3.4339118945       17.7688393363
  C         9.8622665721        6.2353488590       17.2034758369
  H         0.5059556139        4.7993143095       27.5927676684
  H         0.5407079174        6.4026440535       27.0581404845
  C         1.9220567794        5.9321806043       28.6269752629
  C         5.2562468677       -0.5976669604       32.7313534063
  H         6.5106473927        2.8731102109       18.8777604424
  H         5.8519350854        2.8133001219       20.5607679942
  C         5.2475216164        1.3053415135       19.3018732550
  H        10.8722734383        2.6822599752       22.4989846909
  H        11.4468253840        3.4747893988       21.1137797884
  C        12.6553131768        1.7448003884       21.5889563944
  C        10.0549282665        7.6357050916       17.0808070704
  C        10.1658353673        5.5097247022       15.9351953279
  H         2.7513949354        5.2490396533       28.8844367416
  H         2.4406722412        6.9116755530       28.4332833652
  C         0.9946670459        6.1497975472       29.7975462096
  H         5.5340812122       -1.5956843593       32.7614160977
  C         4.9043130438       -0.1356886688       33.9546999558
  H         5.0530234142        0.5259984244       20.0287616542
  H         5.5370209454        0.8737079579       18.3799422769
  C         3.9216417072        1.9397121058       18.9547048183
  H        12.5203257487        0.7301025158       21.9543313065
  H        13.0968022870        1.7653684887       20.6022138063
  C        13.6690615942        2.4090871395       22.6108336144
  N         9.7413416832        8.5900905588       18.0942818077
  C        10.4684946183        8.2764337035       15.8923856991
  C        10.6295653041        6.1455953438       14.8176978600
  H         9.7772632121        4.5128628978       15.9834594864
  H         0.2497788082        5.4873759741       29.8206891464
  H         1.4829650932        6.1432296870       30.7969971203
  H         0.4206004149        7.0934034080       29.7189899841
  S         4.5912201892        1.5264190737       34.3829430094
  C         4.8369288931       -1.1253765042       35.0991134733
  H         3.7102881690        2.7438282292       19.6721981210
  H         3.8977911058        2.4457717628       17.9352403084
  C         2.7613095711        0.8470712105       18.9402115802
  H        13.1652782781        2.5674317911       23.5650724943
  H        13.8346933862        3.4315689481       22.2045850654
  C        14.9560599315        1.5429238603       22.8823584899
  S        10.0053335936       10.1262006956       17.4651631661
  N        10.5262150014        9.7112498663       15.9923827291
  C        10.7266880753        7.6238779377       14.7076747825
  H        10.7922127794        5.5759055091       13.9955904925
  C         4.3957756864        0.8820011490       36.0448739523
  N         4.5333680819       -0.4548068931       36.2325763827
  O         4.9033176526       -2.3668755801       34.9154805229
  H         1.7907770842        1.3525502564       18.9290477982
  H         2.7810739878        0.3088749810       19.8882579733
  C         2.7111215773       -0.1437025856       17.8039853030
  H        14.6424017010        0.8569363145       23.7562227041
  H        15.1605362043        0.9844475281       21.9894842832
  C        16.0800441892        2.5810454299       23.1918795843
  C        11.1358330462        8.3686411658       13.5263843472
  S         4.1234746046        1.8924789486       37.4687167086
  C         4.4702031635       -1.0863637290       37.5817109129
  H         1.6095507188       -0.4296584637       17.7008056071
  H         2.8042594008        0.3299635284       16.7821537893
  C         3.6466275747       -1.3483927580       17.9217926830
  H        15.9395289702        3.0402621372       24.2196073508
  H        16.1891730180        3.5337432163       22.5781433502
  C        17.3643167767        1.7652453063       23.0409092222
  H        10.7669026298        9.2813839600       13.5198614451
  C        11.7307064813        7.9777502004       12.3460756199
  H         3.8462464740       -0.5290808896       38.2065673414
  H         4.1622374574       -2.1553352931       37.4835798937
  C         5.8554662734       -1.0826732733       38.2560138446
  H         3.4104876280       -1.7437651802       18.9290591674
  H         4.6800931568       -1.0708190031       17.7122432209
  C         3.2151233430       -2.3755162064       16.9785852621
  H        18.0368826430        2.1596786353       23.7916095115
  H        17.1750967210        0.7543772398       23.3885856426
  C        17.9403084140        1.9524947005       21.6160842605
  S        12.2650411366        6.4792418206       12.0457014988
  C        11.8059790296        8.9674633786       11.2534947583
  H         6.1652131819       -0.0643301575       38.4729121311
  H         5.7741207456       -1.5914243904       39.1797293691
  H         6.6318594522       -1.5270445048       37.6537844670
  H         2.3272941446       -2.9696770382       17.2670786106
  H         4.1417382447       -2.9599530094       16.8341197258
  H         2.9709678576       -1.9513399047       15.9462818637
  H        19.0956608777        1.7305579631       21.6737821249
  H        17.9084740599        2.9583360187       21.1155591159
  H        17.4387971869        1.2355051641       20.9218967427
  C        12.6985190284        7.0780757074       10.4084995057
  N        12.4169796955        8.3389957280       10.2028996029
  O        11.5312603584       10.1698598522       11.3803176021
  S        13.5057196102        6.2011039860        9.0407461423
  C        12.6681977263        9.1560985897        8.9907201729
  H        12.8113489007       10.2019046264        9.2349135062
  H        13.6267554679        8.9287909659        8.5664734637
  C        11.6045694183        8.9377293060        7.9186919186
  H        12.0488240595        8.3520920482        7.1379595010
  H        10.7407409972        8.4075730487        8.4436456015
  H        11.2178307363        9.9368968263        7.6086422492
  H        -3.4530230775       14.8289785245       16.4270611061
  C        -2.9253135425       13.9003434964       16.2862222152
  H        -3.6233852779       13.0455262116       16.6234499728
  C        -1.8129871128       13.9998564755       17.3294528856
  C        -2.3357020383       13.6722535573       14.9452378106
  C        -2.4560501277       13.9231386395       18.7207958266
  H        -1.0426227708       13.2823609828       17.1837670992
  H        -1.2589251393       14.9904331156       17.3181905803
  H        -1.9204175264       12.5958690143       14.7636584473
  H        -3.0639599240       13.7860713351       14.1498275979
  H        -1.4769322874       14.3980253079       14.8676868618
  C        -1.4805099322       13.8310648842       19.9162918965
  H        -3.2209272708       13.1867261573       18.7496191442
  H        -2.9721075912       14.9074054777       18.8006432221
  C        -2.1427472351       13.6994775224       21.2875841677
  H        -0.9225501503       12.9398846238       19.8012020306
  H        -0.7841966104       14.6811449233       19.8898471105
  C        -1.1844994449       12.9753452965       22.3158052343
  H        -3.1011837346       13.2006431818       21.2982090226
  H        -2.3781858872       14.6987816764       21.7161729961
  C         0.0041094247       13.8329906875       22.7161503041
  H        -1.8328616644       12.6988070558       23.1467641296
  H        -0.8845591914       12.0326530449       21.8135883628
  C         1.2676327904       13.1225393166       23.4313898083
  H         0.4056733825       14.2470256253       21.8340945941
  H        -0.4796337022       14.6735346090       23.2532431929
  C         1.5534425700       11.7652577136       22.7662743093
  C         0.8511874687       12.3672093762       24.6794968091
  C         2.5214997831       13.9515000597       23.5229346942
  C         1.2951074943       10.6530514679       23.5845783215
  C         2.0975057727       11.3370093215       21.5309982648
  C         0.8601304880       11.0592613282       24.8168538604
  C         0.3458623172       13.1127182105       25.7581978870
  H         2.7525085825       14.1578034090       22.5260320104
  H         2.3020999111       14.9272391094       23.9699741112
  C         3.6926051328       13.2605355899       24.2247257002
  S         1.5999577285        9.1366287223       22.8440803003
  C         2.1295079292        9.9734566591       21.3780215253
  H         2.4966407869       12.0606293357       20.8380337004
  C         0.4456521382       10.5109673600       26.0156632670
  H         0.3424701436       14.1485637892       25.6177992815
  C        -0.0891529664       12.5922750059       26.9321821746
  H         3.9041260303       12.4015633388       23.5210585095
  H         3.5296365248       12.7802318116       25.1967491330
  C         4.9181598564       14.2268226289       24.2624890611
  C         2.5636586362        9.3110136376       20.1154993784
  C        -0.0124010279       11.2495961797       27.1054159189
  H         0.4850288778        9.4821260290       26.0011843383
  C        -0.4684029668       12.9945993718       28.2394250349
  H         5.7253811625       13.9298012577       24.9338531223
  H         4.7152714870       15.2388715429       24.6055220258
  C         5.5234492239       14.4072304661       22.8553135575
  C         2.5445995558        7.9088512640       19.8075013773
  C         3.1139374711       10.1086680904       18.9944788041
  C        -0.4962406420       10.5860160037       28.3536191593
  C        -0.7977640859       11.9293709475       29.0374944322
  S        -0.6647016695       14.5258444827       28.9560850586
  H         6.2615035345       15.2811976997       22.8096019851
  H         4.7776623551       14.4669550269       22.1108352724
  C         6.3490753562       13.2032291703       22.4443952361
  N         2.0038299199        6.9656654096       20.6344539035
  C         2.7565046008        7.3998823479       18.5479931757
  C         3.3591381615        9.5577065209       17.7407171579
  H         3.1605670787       11.1616565364       19.0954396550
  C         0.6097275435        9.8499794023       29.1337750621
  C        -1.7495472278        9.6855898505       28.1116340956
  C        -1.2288342393       12.3537447482       30.2708586930
  C        -1.1761563912       13.7027994571       30.3796837758
  H         7.0080254380       12.7631359963       23.1743232026
  H         5.6101879851       12.4362111220       22.1639595774
  C         7.2042227117       13.3774413555       21.2133197415
  S         2.1080509825        5.4745387744       19.9508863078
  N         2.5597370033        5.9901649345       18.4493496297
  C         3.0383193835        8.1646119244       17.4021052533
  H         3.6228953778       10.2739027387       16.9620645194
  H         1.1359731679        9.0837283858       28.5817086802
  H         0.2266986585        9.2990921368       30.0257474923
  C         1.6935043455       10.7280059484       29.7001799342
  H        -1.5939060753        8.9012735357       27.3405550203
  H        -2.0609601571        9.3066171820       29.0780539342
  C        -2.9250663581       10.4824753722       27.7130351476
  H        -1.4115046931       11.6171455708       31.1012071514
  C        -1.5151423028       14.4105321413       31.6628194021
  H         8.0266345456       12.6157014926       21.2307721843
  H         7.6547829865       14.3575972864       21.3454668304
  C         6.3793980084       13.1383928365       19.9510931213
  C         3.2904469258        7.5366289236       16.1446801625
  H         2.1793729992       11.3425979280       28.9056021802
  H         1.4200163117       11.5816217898       30.3670911210
  C         2.7894846773        9.8897743461       30.4996579583
  H        -2.6334913892       11.2374668747       26.8979286540
  H        -3.2673206804       11.0942135471       28.5512772799
  C        -4.1145105213        9.6034316810       27.3069399203
  C        -1.6357810023       15.8505313867       31.8207388176
  C        -1.7341715128       13.6234173017       32.9053382429
  H         6.0190673401       12.1524371801       19.9612630675
  H         5.4663648126       13.8156493977       20.0283242901
  C         7.1386108626       13.4839886622       18.6987823612
  H         3.0621750651        6.4674779572       16.1974323790
  C         3.6404520516        8.0145150268       14.9035585452
  H         3.1204999266        8.9958797111       29.9354898019
  H         2.3034844209        9.4807441674       31.3890452826
  C         4.0630755272       10.6895743570       30.8288398681
  H        -3.8336996571        8.8938588877       26.5579272881
  H        -4.4983333125        9.0251679656       28.0695507247
  C        -5.3223511932       10.3305349086       26.6343135746
  N        -1.3173735705       16.7781376630       30.7768373266
  C        -1.8928023385       16.4985053972       33.0358062493
  C        -1.8978365630       14.2592742761       34.0923569140
  H        -1.6314603398       12.6034275048       32.7944942718
  H         6.5307029439       13.1673057968       17.8150465949
  H         7.2181119803       14.5223861296       18.7366557488
  H         8.1044262634       13.0467413941       18.7737097298
  S         4.1097655099        9.6140484694       14.4781825853
  C         3.5314003444        7.0267008355       13.7585736054
  H         4.2127041756       11.2909066082       29.9160382702
  H         3.8525740809       11.2376911155       31.6964254308
  C         5.3590770513        9.8543744930       30.8998111016
  H        -5.3875880161       10.1308027953       25.5261035768
  H        -5.1965288542       11.3564545850       26.7440180861
  C        -6.6578070021       10.0110755834       27.3796068332
  S        -1.2314338368       18.2442098589       31.4514208322
  N        -1.9287584672       17.8875852020       32.8553974996
  C        -2.1032547412       15.7926126471       34.2010735190
  H        -1.8914949528       13.6324263282       34.9924582060
  C         4.2811785429        8.9554243003       12.8656450870
  N         4.1013976527        7.6177782271       12.6685066980
  O         3.2334527281        5.8524618940       13.8836000024
  H         6.0178612264       10.5910514926       31.3227053420
  H         5.8225868206        9.6492333998       29.9649953895
  C         5.3732982266        8.6106769179       31.9171579005
  H        -6.8048336380        8.9343643361       27.3718321360
  H        -6.7168506285       10.2055725548       28.4577275085
  C        -7.9197180477       10.5379596985       26.6126897898
  C        -2.4169814366       16.4759101269       35.4022988578
  S         4.9227638573        9.9274595567       11.5626786585
  C         4.1585331204        6.8646437177       11.4101652041
  H         6.2422482580        8.7359060754       32.5241194412
  H         4.4530016640        8.5807978576       32.5134855049
  C         5.3885587810        7.2080372157       31.1942161173
  H        -7.6916853601       11.5061856085       26.1691522800
  H        -8.7987902229       10.8126906671       27.2395319417
  C        -8.3625298175        9.5545089424       25.5494343582
  H        -1.9004091387       17.4023667929       35.3449403544
  C        -3.0607445803       16.1107006035       36.5545041821
  H         5.0968260096        7.0498904485       10.8389701519
  H         4.1726257607        5.7650246142       11.7241338008
  C         2.8754382320        7.0050529656       10.5933677544
  H         4.8000563759        7.1769730403       30.2502448168
  H         4.9728860921        6.5110949379       31.8572062162
  C         6.8110385699        6.7473345251       30.9103816730
  H        -7.4021937191        9.3576601014       24.9847976105
  H        -8.7008860829        8.5387484677       25.9583053727
  C        -9.4728350712       10.0487592822       24.6708535152
  S        -3.7061007843       14.5793835436       36.9417504431
  C        -3.2467625139       17.1574054318       37.6919131689
  H         3.2088884847        7.7889507548        9.9059350124
  H         2.7266133376        6.1166532898       10.0509739576
  H         1.9991718666        7.0821706595       11.2094155980
  H         7.3798896628        6.9802722195       31.8249040967
  H         7.3779440636        7.1060773350       30.0196958956
  H         6.8535011439        5.6733217846       30.9810933814
  H       -10.2344343916        9.2160986617       24.4998140167
  H        -8.9869796768       10.2671000032       23.7623375011
  H       -10.0507871101       10.8832726294       25.0134026254
  C        -4.1495559655       15.3102498881       38.5231533010
  N        -3.8186855824       16.5945110525       38.7582242953
  O        -2.7528723772       18.2457794727       37.6506748598
  S        -4.7405428380       14.2860827362       39.9152414585
  C        -4.0936883898       17.3422192082       39.9440663990
  H        -4.4245068242       18.3282059308       39.7223892962
  H        -4.9831325641       16.9575975639       40.4727261897
  C        -2.9660136213       17.2016866202       40.8643070171
  H        -2.8883922062       16.2058235144       41.2752220701
  H        -2.0082240853       17.3144938303       40.2976764226
  H        -3.0504360667       17.9523475302       41.6387973453
