352
 i =    82000, time =    82000.000, E =        25.3801151642
  H        10.3520930852        7.1689862241       31.7873191635
  C        11.3595594459        6.8045429903       31.9334816976
  H        11.8662089027        7.7098691333       32.2242187283
  C        12.0162167937        6.1370861563       30.7058856899
  C        11.5331472367        5.8997978945       33.2057766001
  C        11.1453852705        5.0300111068       30.1554622441
  H        12.0235003949        6.9389610129       29.9452085804
  H        13.0680853505        5.7873324976       30.9574722959
  H        11.9946671203        6.4687811420       34.0306071382
  H        10.5641524041        5.5525715454       33.4412316482
  H        12.1287066034        5.0363477909       33.0286394575
  C         9.9968974754        5.5134675882       29.1863229267
  H        10.6733169203        4.6106432212       31.0436262603
  H        11.7406237216        4.2204906040       29.7003079094
  C        10.6058607596        5.8507847887       27.7510390917
  H         9.3146368135        4.7058759403       29.1796869018
  H         9.4947587566        6.3863844993       29.5893878998
  C         9.7194932661        5.2698201396       26.6403860937
  H        11.6358536039        5.5927720197       27.6336768135
  H        10.6748676978        6.9445367601       27.5094883401
  C         8.3953565847        6.0182353643       26.5105998708
  H        10.2859318164        5.3424759589       25.7675290200
  H         9.6514957963        4.1806983804       26.7827373136
  C         7.4219246450        5.2879128883       25.5132474822
  H         8.0184899424        6.2488929296       27.4076824838
  H         8.7116606064        6.9114944466       25.9696788449
  C         7.0692259388        3.9502454524       26.1319271318
  C         7.8654587788        4.6284109003       24.2934072151
  C         6.2300575911        6.0972212469       25.0103494547
  C         7.3280186578        2.8591159887       25.2984800079
  C         6.6781613401        3.5836315070       27.4710132460
  C         7.7605304333        3.2682666243       24.0761964779
  C         8.4847597196        5.3131156390       23.2430901804
  H         5.7561622325        5.4819850411       24.2149620328
  H         6.5286059914        7.0744715912       24.6170272729
  C         5.2457461543        6.5749170014       26.1128507319
  S         7.0688645506        1.3527927348       26.0511553703
  C         6.5822165878        2.2342593150       27.5460391682
  H         6.5937429279        4.3284625226       28.1948578212
  C         8.2334624693        2.7083765797       22.9647060762
  H         8.7853490749        6.3083789956       23.4144948193
  C         8.8725657946        4.7341819075       22.0733727602
  H         5.3248250017        6.0012911697       27.0205482929
  H         5.3860912674        7.6497284189       26.3402751475
  C         3.8672921301        6.4497172179       25.5066245087
  C         6.1579581003        1.5811255203       28.8203037275
  C         8.8244110908        3.3865660093       21.8974030379
  H         8.3967489586        1.6493052115       22.8139770646
  C         9.3517353857        5.1577942748       20.8864172596
  H         3.8015730653        5.4080590347       25.2654420171
  H         3.6549712251        6.8238109546       24.4909501831
  C         2.7949397286        6.7599208358       26.5538725143
  C         6.2869995171        0.1903815438       29.1129701709
  C         5.7281674845        2.3850851221       29.9872442790
  C         9.1189828022        2.7056739097       20.6290486269
  C         9.4713607028        4.0919994500       20.0162007075
  S         9.6380026900        6.6945801392       20.1586265993
  H         1.8701043778        7.1465866382       26.0436513876
  H         3.1221251234        7.4646547373       27.3007016363
  C         2.3099342851        5.3816624768       27.1274183341
  N         6.7191719652       -0.7824852781       28.1894143134
  C         6.0063979761       -0.3304995035       30.3360714170
  C         5.3865250059        1.8398205938       31.2163461306
  H         5.7039478226        3.5010631041       29.9697926551
  C         7.8929053554        2.0533240753       19.9704708102
  C        10.3422900739        1.7439113382       20.8322652357
  C         9.7631785408        4.5079626744       18.6936391173
  C         9.9500549059        5.8588527823       18.5950593393
  H         2.0136051970        4.7147862407       26.2842640046
  H         3.1280784539        4.9096059131       27.5808666513
  C         1.1211398284        5.4445748315       28.1267417426
  S         6.6589350092       -2.2781480319       28.9007877845
  N         6.0717491458       -1.7454813574       30.3344308081
  C         5.5627112565        0.3964861325       31.5164742058
  H         5.0061463514        2.4820802696       31.9799511452
  H         7.5862985323        1.2850246414       20.6627744022
  H         8.3150944972        1.6838169862       19.0252311624
  C         6.6998096818        3.0688850744       19.6942662230
  H        10.7750377730        1.2775007774       19.9565783508
  H        10.0795075631        0.8615490682       21.4137109843
  C        11.5689874698        2.4516939043       21.4130897193
  H         9.7099627812        3.7530918572       17.9166987470
  C        10.2280179858        6.6550570037       17.3673201021
  H         0.5141624137        4.6604751758       27.7453776570
  H         0.5596725753        6.4350604330       28.0875456768
  C         1.3192601535        5.2391053466       29.6154953562
  C         5.2854304343       -0.3093908513       32.7424584571
  H         6.9991859475        3.9952345911       19.0720059299
  H         6.4199519896        3.7192148765       20.5200548799
  C         5.3170968287        2.4707414471       19.2033927078
  H        11.2795793410        2.8420567325       22.3813835181
  H        11.8181126083        3.3221628148       20.8624425474
  C        12.7299868604        1.4830439525       21.6486208533
  C        10.2963577626        8.0849363983       17.2665010153
  C        10.5814154396        5.9100597865       16.1657004987
  H         0.3553105791        5.4085472135       30.0716737911
  H         1.6668580414        4.2498685591       29.8036123172
  C         2.3177999916        6.1747994228       30.1956369163
  H         5.5651267060       -1.3410386820       32.6675704511
  C         5.0034623953        0.1109580005       34.0180468420
  H         4.5133996621        3.2225353809       18.8890623923
  H         4.8421435915        1.8811788794       19.9735159988
  C         5.4480712636        1.4300129416       17.9946365934
  H        12.5813013082        0.9574264071       22.6189825549
  H        12.7796525366        0.7384928846       20.8351331824
  C        14.0099751734        2.3059748453       21.7375190955
  N        10.1460579171        9.0169453233       18.3187832823
  C        10.6376828509        8.7516032113       16.0778645013
  C        10.8608319908        6.5830749226       14.9873334112
  H        10.4150670525        4.8859646740       16.0527859173
  H         2.6789550005        5.7525151942       31.1442858875
  H         3.1306891538        6.3939235307       29.5270256616
  H         1.8171569166        7.1231406912       30.4628295915
  S         4.4672997480        1.6755454416       34.4573788715
  C         5.0142200229       -0.8421582518       35.0580400469
  H         5.9329944816        1.8153916582       17.1381647520
  H         5.9809667717        0.5468593562       18.3259750192
  C         4.1006133770        0.7278285235       17.6250860562
  H        13.7876759073        3.1392430846       22.3689583723
  H        14.3085158063        2.6638560201       20.7578317398
  C        15.1058363460        1.5628698573       22.4068521314
  S        10.5113480893       10.4867715039       17.7975418133
  N        10.6041269095       10.1688683277       16.2339626479
  C        11.0047931432        8.0624536981       14.8508497720
  H        10.8731425057        5.9864205254       14.0714480279
  C         4.1391577494        1.0034973100       35.9606710763
  N         4.4254784222       -0.2773693833       36.1372840277
  O         5.4613138561       -1.9386924606       34.8673972938
  H         4.3743726128        0.4121572226       16.5829803167
  H         3.3071006314        1.4498194544       17.6338098648
  C         3.8348970448       -0.5899190355       18.3849450454
  H        14.6122620747        0.9376156519       23.1716242433
  H        15.3967962874        0.9113893848       21.5912029376
  C        16.1734199886        2.4979536518       22.8632270223
  C        11.4090674577        8.6726973192       13.6273775892
  S         3.6010621924        1.9338823957       37.2959196290
  C         4.3070497509       -0.9478581828       37.4330516570
  H         4.4848010193       -1.3323557297       17.9360463712
  H         4.2654894806       -0.3550834434       19.4449805516
  C         2.3840442209       -0.8830278332       18.2328556624
  H        15.7653294728        2.9781747873       23.7750108086
  H        16.3008044080        3.3642636470       22.1480374820
  C        17.3894469403        1.7109959332       23.2065320495
  H        11.2233139773        9.7827388971       13.5502036730
  C        11.8165763859        8.2063041144       12.4133248811
  H         3.5352962523       -0.5379119096       38.1315251070
  H         3.8176081560       -1.8924360079       37.1936259036
  C         5.6766734503       -1.1361575851       38.2107510587
  H         1.7228196048       -0.0139009989       18.2756586405
  H         2.1794947030       -1.5499691489       19.0746768486
  C         2.1188096159       -1.6132240241       16.9421918886
  H        17.7379326604        2.2915919891       24.0319579761
  H        17.1521874161        0.7516960668       23.5112764578
  C        18.5944150935        1.7270196610       22.3260979005
  S        12.5177824274        6.6877798040       11.9996116218
  C        11.9009276835        9.2027921652       11.3209270444
  H         5.6445941830       -2.0893183814       38.7695846797
  H         6.5341436782       -0.9726750743       37.4791328394
  H         5.6084063955       -0.3638441509       38.9445044771
  H         2.5941557717       -2.6148773131       16.9109361409
  H         2.4825021378       -1.0284262622       16.1113685673
  H         0.9988751736       -1.5259800567       16.8697055188
  H        18.6596187122        2.7452995021       21.8773773302
  H        18.4599707939        1.0942762954       21.4937550273
  H        19.5279343292        1.4312518529       22.8222767601
  C        12.8842611233        7.3993998087       10.4163790149
  N        12.5905879553        8.7100170995       10.2721144575
  O        11.4852362015       10.3835883701       11.3887687277
  S        13.7019207922        6.5031827919        9.1805431234
  C        12.7828133512        9.3994704380        9.0070563416
  H        12.8044134333       10.4852993758        9.2060930195
  H        13.6894113399        9.1748371135        8.4024409937
  C        11.4753612737        9.2942080513        8.2476673003
  H        10.7280891363       10.0451273307        8.5640805007
  H        11.6528385228        9.5536342623        7.2567230395
  H        11.0346698585        8.3471938406        8.3959915522
  H        -1.4829412443       15.5122377352       16.8471219117
  C        -2.2962206469       14.8675622650       16.7075204267
  H        -3.1002817702       15.4218293976       17.2133699681
  C        -2.0642296897       13.6613113180       17.6845799325
  C        -2.4224736477       14.5954928661       15.2170092624
  C        -2.2866766209       14.0974218839       19.1201811430
  H        -2.6291089605       12.6880088867       17.4349980693
  H        -1.0315588683       13.2793520612       17.5620371875
  H        -2.5120736095       15.4434514254       14.5961372318
  H        -1.4840923866       14.0333082383       15.0033192867
  H        -3.2036223701       13.8688270369       15.0603304344
  C        -2.0221190312       12.9743248683       20.1332944674
  H        -3.3456378373       14.3015522318       19.2738264553
  H        -1.6770051030       14.9395334963       19.3164072390
  C        -2.1393531997       13.3684566943       21.5906922151
  H        -2.8107638032       12.2824786310       19.9219809847
  H        -1.0985546348       12.3837547413       19.8399555656
  C        -0.9638486675       12.7808549070       22.4341533146
  H        -3.0320498417       12.8481085170       21.8962906029
  H        -2.2538492676       14.4216322699       21.8267129058
  C         0.3144910684       13.6802062501       22.4207187008
  H        -1.2472941254       12.5943150997       23.5030983654
  H        -0.7574475523       11.8148585570       21.9597180459
  C         1.5598013005       13.0841378876       23.1563173760
  H         0.7255265725       13.9755727191       21.4257800483
  H         0.1485929833       14.6084543500       22.9728498650
  C         2.0502728035       11.7666627204       22.4317659341
  C         1.2449984606       12.4191775905       24.3520913054
  C         2.7747739136       14.0257154004       23.4475634239
  C         1.7962958415       10.6361566422       23.2114278219
  C         2.5562308298       11.4480056548       21.1874915572
  C         1.3533082056       11.0433692084       24.4631406615
  C         0.8033887845       13.0736758122       25.4851053428
  H         2.9614124142       14.4753928977       22.4916897484
  H         2.5779058806       14.8278096863       24.1475157954
  C         3.9616968776       13.2954508886       24.0209639659
  S         1.9820916837        9.1158615887       22.2871630555
  C         2.4777710064       10.1250139598       20.9112109537
  H         2.7550995739       12.3433351743       20.5790264892
  C         0.9044088937       10.4654342101       25.6107938194
  H         0.8191935769       14.1864760610       25.4649124754
  C         0.5536530360       12.4629512928       26.6531738875
  H         4.2307117598       12.5011602962       23.3125207188
  H         3.7332113725       12.7782329170       24.9346365036
  C         5.2629669540       14.1088120412       24.4567240150
  C         2.8160901557        9.4698962771       19.5763091122
  C         0.5476813241       11.1315869266       26.7767561248
  H         0.9600552637        9.4459236366       25.6066633346
  C         0.2513547671       12.8614251145       27.9480810577
  H         5.8551163345       13.4931162257       25.0927285484
  H         4.9354729338       14.9159043947       25.0709944124
  C         6.2033374332       14.5897278922       23.3715566702
  C         2.9192798285        8.0883271916       19.3910137241
  C         3.2034770282       10.3683907676       18.4717299970
  C         0.1762518252       10.4232296742       28.0487991016
  C        -0.0714698297       11.8005675937       28.7519630629
  S        -0.0307808920       14.3530823139       28.7558699344
  H         7.0288308251       15.1329608887       23.8790010565
  H         5.8015271004       15.2730302509       22.6439893293
  C         6.7554418683       13.4979874118       22.4345557750
  N         2.5418766492        7.1053870165       20.2776271567
  C         3.3751034976        7.5521964658       18.1335642207
  C         3.6107752244        9.7870647726       17.2580539960
  H         3.1375352889       11.4362637023       18.5782159985
  C         1.2758601023        9.6371785010       28.8335745539
  C        -1.0720770158        9.6355022483       28.0169337052
  C        -0.5873997989       12.1543668403       30.0073692467
  C        -0.6400486896       13.4814853219       30.1670649629
  H         7.4359732655       12.8868597741       23.0066653409
  H         5.9673207841       12.8557138878       22.1549775560
  C         7.7795811064       13.9052780111       21.3019168558
  S         2.9462648140        5.6536791034       19.6530903320
  N         3.4219506652        6.1429078207       18.1649576565
  C         3.6274123762        8.3368033072       16.9890692009
  H         3.8219539669       10.4663177190       16.4623029312
  H         1.4906778270        8.8520365799       28.0909056017
  H         0.9292980280        9.1057924267       29.7702811398
  C         2.6207163573       10.4184589931       29.1251599889
  H        -0.8107886866        8.6239682963       27.7187860058
  H        -1.4630116451        9.5745949649       29.0149573489
  C        -2.2631347168       10.1553120436       27.2309195591
  H        -0.9205617766       11.4260354445       30.7639007354
  C        -1.0121139329       14.2250501627       31.4315266379
  H         8.5023298982       13.1576157122       21.1247733133
  H         8.3229389367       14.7558858039       21.5026136019
  C         6.9650802106       13.8067245711       20.0121789961
  C         3.9553632946        7.6899583244       15.7957425930
  H         2.9311046642       11.0488509807       28.3464354793
  H         2.2081903831       11.0693437944       29.9100463253
  C         3.6020688618        9.4913169893       29.7247969984
  H        -2.0969485321       10.2875746797       26.1441088694
  H        -2.2629713221       11.2094077550       27.5418247148
  C        -3.6265772777        9.5012260455       27.3434629640
  C        -1.1515920540       15.6074104419       31.5632647566
  C        -1.1896848356       13.4478232604       32.6908364132
  H         6.3234779399       12.9186543804       19.9397035656
  H         6.2611976423       14.6003414453       20.1606941437
  C         7.7763297177       13.9319575529       18.7546285435
  H         3.9963775504        6.5533536528       15.8320909255
  C         4.2521157416        8.1242734704       14.5154633809
  H         3.7731916769        8.6955919361       29.0649488517
  H         3.2049135267        8.9392599364       30.5446730659
  C         4.8712752762       10.2345482362       30.0341041476
  H        -3.4436951071        8.5991279665       26.7627115238
  H        -3.8773734683        9.2378480551       28.3519020258
  C        -4.7212638254       10.2980526225       26.6353123986
  N        -0.9950294731       16.4669459612       30.5060816239
  C        -1.5103183424       16.2586456276       32.7265088394
  C        -1.7322519098       14.0251488394       33.8026067281
  H        -0.8973096936       12.4251107298       32.7110914407
  H         8.7443756996       13.3406994763       18.8057654537
  H         7.1342470985       13.5300050678       17.9925966728
  H         8.2221669742       14.9704003828       18.5454873049
  S         4.5806066308        9.7075100673       13.9993149064
  C         4.4816256674        7.0608155993       13.5245532664
  H         5.4670230770       10.1974204612       29.1154395495
  H         4.6818746096       11.2540674923       30.3471792456
  C         5.7098589873        9.3886649181       31.0267998766
  H        -4.2591382848       10.9303040351       25.9546680204
  H        -5.1588578057       10.9560883871       27.3734057250
  C        -5.8697397174        9.4831286538       25.9901039759
  S        -1.2454168075       18.0226655567       31.0777880949
  N        -1.6545634410       17.6436214493       32.6043493907
  C        -1.9475950690       15.4770485310       33.8645175335
  H        -1.9068405431       13.3878508175       34.6059499070
  C         4.7856065494        8.9204767292       12.3864552039
  N         4.8578040519        7.5764541361       12.4022660622
  O         4.3107578565        5.8324525998       13.7340574810
  H         5.0345749639        8.7800036451       31.5542521854
  H         6.2068730314        9.9820900504       31.7604847603
  C         6.7039842685        8.4837117894       30.2762101575
  H        -5.4020926931        8.7170462624       25.4035207833
  H        -6.4141457085        8.9578804826       26.7639078768
  C        -6.7885140603       10.4153496324       25.2397421062
  C        -2.4129885478       16.1948963178       35.0435249702
  S         5.3206975873        9.7424666772       10.9293583293
  C         5.0786703547        6.7745219272       11.2127895077
  H         6.7298968423        8.5016476176       29.2141883601
  H         7.6637027073        8.8125215733       30.6003222773
  C         6.5655945296        6.9815154506       30.7043029613
  H        -6.3016503911       10.7661515053       24.3302438267
  H        -7.1493215830       11.2468271591       25.8610749418
  C        -8.0928040166        9.6691524725       24.7267035662
  H        -2.2306048428       17.2738831880       35.0875791083
  C        -2.8742660087       15.8411933422       36.3011170680
  H         5.4887451567        7.3130266621       10.3265587575
  H         5.6325275634        5.8299961570       11.2595332190
  C         3.7891649282        6.4786073107       10.6330509227
  H         6.7861971952        6.4091983338       29.7541834409
  H         5.4925278593        6.8662031930       30.9136817869
  C         7.3334829541        6.4966076569       31.9521446367
  H        -8.5778978003       10.2816892561       23.9539075560
  H        -7.8374866994        8.7063128596       24.1838131764
  C        -8.9759988799        9.4937281421       26.0085441099
  S        -3.2209514670       14.2284780949       36.8542949811
  C        -3.0518906728       16.8989175333       37.3281071116
  H         3.6775301420        5.3939895177       10.4980675881
  H         3.0189421853        6.8985626626       11.2690158920
  H         3.5971377471        7.0296324099        9.6903272481
  H         6.7659842805        5.7038125712       32.4489200701
  H         7.4827330595        7.3706412140       32.5687420898
  H         8.3086410968        6.1177903202       31.7975976155
  H        -9.9850613061        9.4145023585       25.6349053632
  H        -8.9666826575       10.4221261619       26.6022799044
  H        -8.6860298245        8.6050618727       26.5800039301
  C        -3.7802672119       15.0004479441       38.2991838649
  N        -3.5617790582       16.3036015284       38.4126680991
  O        -2.7605225438       18.0887876555       37.1498608255
  S        -4.3499245022       14.0835628987       39.6602587510
  C        -3.7937227127       17.0889397546       39.6521825149
  H        -3.7512821691       18.1709730668       39.4531445120
  H        -4.7153300390       16.7150565145       40.1853297990
  C        -2.5207294240       16.8779598396       40.4539829074
  H        -1.9478146099       17.7833303212       40.2855773110
  H        -2.6983055762       16.4916219693       41.4822618035
  H        -1.8882188858       16.1243444950       39.9533554910
