352
 i =    79300, time =    79300.000, E =        24.9625971430
  H        10.8610600480        7.5940134795       31.4675004182
  C        11.6545119944        6.9003731962       31.6973665246
  H        12.4660360961        7.5158153855       32.0255843116
  C        12.1395454858        6.0979816653       30.4188414862
  C        11.1318920657        6.0299991785       32.9186958712
  C        10.9565868670        5.2468670662       29.8668938532
  H        12.4614324648        6.8084627394       29.6793914711
  H        12.9612225399        5.5224771210       30.7934105034
  H        11.3604503273        6.6331143734       33.7440805573
  H        10.0582647184        5.8744910577       32.7926677163
  H        11.6092021437        5.0407334503       32.8728877379
  C         9.9503333197        5.9524807204       28.9698771570
  H        10.5481339370        4.7140583548       30.6982595874
  H        11.3751364458        4.4658247080       29.2457333305
  C        10.4646910635        6.0026566594       27.4789225331
  H         8.9599658327        5.4680794224       29.0122732625
  H         9.8760080790        7.0042489931       29.2931743309
  C         9.5703794442        5.2179532851       26.5292357481
  H        11.5039417552        5.7090964326       27.5153070724
  H        10.4697385195        7.0528771019       27.1293689053
  C         8.3679528678        5.9925596717       26.1843302221
  H        10.1491004704        4.9446240532       25.6491584705
  H         9.4119110421        4.2853614847       27.0067340856
  C         7.3559696266        5.1969677274       25.3809618573
  H         8.0023734619        6.3168761337       27.1553050505
  H         8.6036207407        6.9916654590       25.6186633339
  C         7.0855767301        3.8543055625       26.1194414383
  C         7.8288049463        4.4648151612       24.1218647243
  C         5.9526150653        5.9252576344       25.0575877035
  C         7.3048759803        2.7100298022       25.3652197524
  C         6.6709207506        3.5254042324       27.4172887239
  C         7.7214404608        3.0584142793       24.0562552007
  C         8.2171314895        5.0569021501       22.9323179010
  H         5.4483437589        5.3065585791       24.3646634400
  H         6.1063814117        6.9025775087       24.4701655234
  C         4.9688704424        6.1224950287       26.1762209754
  S         6.9448301427        1.2155529369       26.1712543093
  C         6.4625122497        2.1221791936       27.5880209673
  H         6.5790055778        4.1943718653       28.2607256033
  C         7.8605484335        2.4152454694       22.8877860104
  H         8.3064138116        6.1635234840       22.8499156061
  C         8.4497359420        4.3659667624       21.8106114533
  H         4.8309169644        5.2591422884       26.7734789009
  H         5.2750948627        6.9595508951       26.7405197886
  C         3.4757505833        6.4431702513       25.7441523868
  C         6.2551242258        1.4010415510       28.9386420682
  C         8.2661360805        3.0664230928       21.6702501351
  H         7.6536608065        1.4088393137       22.7954510089
  C         8.8342365025        4.7374237379       20.5444160316
  H         3.0750196663        5.5279830940       25.3147432534
  H         3.5546840947        7.2592587092       25.0209134677
  C         2.6179433733        6.9969189478       26.8510386687
  C         6.1549118490       -0.0006886300       29.1564034941
  C         5.9310354349        2.2471005026       30.1456580903
  C         8.6079503215        2.2880287644       20.3441384574
  C         9.0252078337        3.6512721485       19.6908124312
  S         9.2904987225        6.2415457318       19.9028248871
  H         1.7519196013        7.6036121604       26.4280884822
  H         3.0739323566        7.8038628954       27.3763043760
  C         2.2369565184        5.9476252476       27.8513242989
  N         6.3850817164       -1.0097148733       28.1739026116
  C         5.9507469504       -0.5161695862       30.4423901879
  C         5.6919883972        1.7044134453       31.3888111119
  H         5.8283741774        3.3407863954       30.0841039336
  C         7.3483979761        1.6863951297       19.6774967801
  C         9.9124192972        1.3599895252       20.5414553663
  C         9.5202583481        4.0420223491       18.4497790943
  C         9.6718534320        5.3949349343       18.3493999492
  H         2.4390178174        4.9306170937       27.4595355455
  H         2.8208376855        6.1864033752       28.7656445122
  C         0.8070950285        6.0217505578       28.3566388344
  S         6.2742934181       -2.4666430973       28.9481107035
  N         6.1332785204       -1.8845053468       30.4257933060
  C         5.6538827493        0.2049652049       31.5973799498
  H         5.4861419452        2.4030854352       32.1822102794
  H         6.9674780310        0.9031168588       20.2846884047
  H         7.5297924755        1.1531434180       18.7400620485
  C         6.0822546109        2.5953460937       19.5803684840
  H        10.1382253232        0.7242263085       19.6894878717
  H         9.8309838617        0.5937419721       21.3067198699
  C        11.0772484990        2.2297800962       20.9345688651
  H         9.6820916906        3.3307522070       17.6475059909
  C        10.0416351504        6.1097270983       17.0518716785
  H         0.0796909369        6.0089068637       27.5982977173
  H         0.5868436066        7.0680130653       28.7890062018
  C         0.4928875922        4.9190635144       29.4416794980
  C         5.5176305909       -0.4736986411       32.8443864222
  H         6.2420076325        3.2312188148       18.6882647355
  H         5.9736363279        3.2346644765       20.4549416168
  C         4.7300641774        1.9754526474       19.3427959875
  H        10.8451715012        2.8655744083       21.8078948982
  H        11.5068067637        2.9631519155       20.2837171912
  C        12.3070578491        1.4931206161       21.5021703961
  C        10.3017768332        7.4943757245       16.9683003286
  C        10.2182498038        5.3428354509       15.8647739007
  H        -0.5838537466        5.0697131085       29.7313498610
  H         0.7323403056        3.9127382909       29.1006622649
  C         1.2248134266        5.1639685932       30.7407593660
  H         5.7114280701       -1.5001791933       32.8845300033
  C         5.1094385668        0.0137144987       34.0575383157
  H         4.0784852163        2.5985571269       19.9376281784
  H         4.7682956989        0.9216050265       19.8254991637
  C         4.2400216857        1.7815409214       17.9210286350
  H        12.1372368300        0.8201556668       22.2837665450
  H        12.6145378802        0.8124853546       20.6918270463
  C        13.3328975793        2.4771959618       22.0769687674
  N        10.1290866075        8.4758820865       17.9932098484
  C        10.5224694937        8.1241898908       15.7407129526
  C        10.5478424707        5.9442166504       14.6117257863
  H        10.1974825683        4.2777248545       15.9313300656
  H         1.2029076144        6.2139671132       30.9693100123
  H         0.8834237251        4.5347513216       31.5735770442
  H         2.2821917528        5.0259896482       30.4793366194
  S         4.6834947487        1.6346624368       34.3953222060
  C         5.0596987720       -0.8706222097       35.2155159784
  H         3.9745762124        2.8130166453       17.5602389322
  H         5.0867237368        1.6328689322       17.2635374455
  C         3.1529527096        0.7458536933       17.6089600098
  H        12.8964113264        3.0660729576       22.8751879391
  H        13.6662985863        3.1469835439       21.2618172520
  C        14.6671841300        1.8149686975       22.4535796988
  S        10.2393274815        9.9966573568       17.3633250544
  N        10.6169902081        9.5497084253       15.8631148823
  C        10.6442895868        7.3924862129       14.4886883250
  H        10.5526725604        5.1986369695       13.7648774505
  C         4.3529571190        1.1082743336       36.0498776189
  N         4.6242854829       -0.2316217825       36.3233580729
  O         5.2788403328       -2.0821671065       35.1866347336
  H         3.1821318959        0.6847189235       16.5889522061
  H         2.2545668808        1.2289734882       17.8726600079
  C         3.1019913317       -0.6080780758       18.3436910680
  H        14.5014818453        0.7403235230       22.7799485070
  H        15.1447781005        1.5583278705       21.5762076002
  C        15.5357396090        2.6399189626       23.4438370702
  C        10.8825176478        8.1564448089       13.3226897560
  S         3.8445824570        2.1604990687       37.3820919025
  C         4.4802377462       -0.8782771828       37.6547686584
  H         4.0017745825       -1.1697489366       18.0683722769
  H         2.9765349835       -0.5225347407       19.4555897144
  C         1.7902919718       -1.3672487581       17.8386638222
  H        14.8835764989        2.9290962103       24.2179134103
  H        15.8530103846        3.5369123007       22.8846771836
  C        16.6935097693        1.8409283090       24.0028824910
  H        10.8031804955        9.2050351790       13.4842225636
  C        11.3882014971        7.6974786194       12.1252368279
  H         3.7681448982       -0.3339689703       38.3033400309
  H         4.0730428097       -1.8543041166       37.5459396034
  C         5.8722363447       -0.9952179285       38.3655222949
  H         1.0311449478       -0.6049117049       17.8149427813
  H         1.5623709407       -2.1850285993       18.4879286909
  C         1.9318059410       -1.9700091543       16.4689976717
  H        17.1785245145        2.3566993866       24.8190132693
  H        16.3880103170        0.8409441247       24.2555083859
  C        17.6678036429        1.7213723905       22.7944316898
  S        11.9231020266        6.0657452720       11.7040092092
  C        11.7855692983        8.7204440282       11.1443779989
  H         6.5949088759       -0.5695720629       37.7197894008
  H         6.0581072275       -0.2823359064       39.1262387566
  H         6.1520605410       -1.9940442359       38.6370779127
  H         2.1904723903       -1.2194787635       15.7954163144
  H         0.8949074149       -2.1242780522       16.1245593634
  H         2.5096490553       -2.8271545729       16.3324484965
  H        17.8117276677        2.6710217454       22.3103085429
  H        17.2997513034        1.0724797256       21.9399321073
  H        18.6305861704        1.3359820683       23.0939670752
  C        12.3490021999        6.7603182860       10.1343931708
  N        12.3274174104        8.1244689533       10.0740859253
  O        11.6840398559        9.9095907722       11.3433350838
  S        13.0642441813        5.8025536702        8.7922248029
  C        12.5483118744        8.9202010815        8.8846177327
  H        13.0244153234        9.8688307412        9.1038671958
  H        13.3010068713        8.4320800750        8.2264191624
  C        11.2457466541        9.1230388730        8.0460395735
  H        10.4176597842        9.5085292479        8.6616803346
  H        11.3046931255        9.9255494422        7.2696813256
  H        10.8478914545        8.1542364030        7.7168463670
  H        -3.1475444570       15.5147468676       16.2367490829
  C        -3.0159537161       14.3960401088       16.3319657185
  H        -3.9543911389       13.9596501753       16.6255207120
  C        -1.9754933814       13.9809157498       17.4429901365
  C        -2.5568963667       13.7465078787       14.9994208506
  C        -2.5479782296       13.8483232887       18.7609472483
  H        -1.5397092821       13.0158834967       17.1668289808
  H        -1.1863911378       14.7492775977       17.4911556594
  H        -2.6442568918       12.6387051528       15.0526398045
  H        -3.2781389703       14.0059193184       14.2009355799
  H        -1.4639538674       14.0189370455       14.7969211551
  C        -1.5064778808       13.6213447546       19.8005554052
  H        -3.2114547639       12.9845381804       18.8436839733
  H        -3.0861867794       14.7358348193       18.9320351742
  C        -2.0354368254       13.6941729878       21.3196138768
  H        -1.2528567398       12.6008479301       19.5875883323
  H        -0.6434174050       14.2607596992       19.5824608796
  C        -1.0498653375       13.1681461125       22.2948359231
  H        -2.8782642756       13.1653849705       21.4367736253
  H        -2.2823988832       14.6912492430       21.4854653165
  C         0.0744763140       14.1077735185       22.6724499050
  H        -1.5828858111       13.1199703332       23.3032159930
  H        -0.7301466865       12.1693354086       22.1240795621
  C         1.3653241303       13.3728092840       23.2661886839
  H         0.4016543805       14.7108681729       21.8132126899
  H        -0.2290394479       14.7812945182       23.4336540587
  C         1.7150043472       12.0510160560       22.6538010308
  C         1.0597516379       12.6225741379       24.5842000748
  C         2.6110084010       14.2909302582       23.4464377596
  C         1.5512641509       10.9120970871       23.4476643394
  C         2.1248023443       11.6524216438       21.3588241629
  C         1.0963963147       11.2373660663       24.7055923659
  C         0.6021958016       13.2515885780       25.7629853077
  H         2.8772937078       14.6952247235       22.4175362605
  H         2.3494099895       15.1636988118       24.0654629592
  C         3.8449641559       13.5780115954       23.9848187922
  S         2.0724779302        9.4920459893       22.6669267294
  C         2.3363601162       10.2756072771       21.1912905212
  H         2.2432523045       12.3430790688       20.6029155902
  C         0.6973167452       10.6043552835       25.8684044433
  H         0.5390534680       14.3673470242       25.7358297521
  C         0.1197971953       12.6137556785       26.9192518988
  H         4.1026858898       12.7976456249       23.2875338576
  H         3.5990339599       13.0601684150       24.9067210197
  C         5.0287158856       14.5466981459       24.1242802162
  C         2.7933855474        9.6065479368       19.9584030270
  C         0.1450839165       11.2546810044       26.9730991810
  H         0.7412158649        9.5411190180       25.9017544487
  C        -0.4441765885       12.9502564643       28.1136785964
  H         5.6356676307       14.2414106650       24.9507062742
  H         4.7264970095       15.5955093160       24.2569237735
  C         5.8524771639       14.5638341443       22.8688639988
  C         2.6594957707        8.2580199310       19.6675157546
  C         3.2159917457       10.4503253788       18.7981717368
  C        -0.3624914164       10.4790602729       28.1618131134
  C        -0.7890713165       11.8329533206       28.8226293674
  S        -0.7587837594       14.4570773794       28.8860511528
  H         6.6998688387       15.2242535720       23.0231393709
  H         5.2270027983       15.0264424964       22.0711371180
  C         6.4911190270       13.2694355857       22.3450214790
  N         2.0812510475        7.2741874187       20.5464952155
  C         2.9928201330        7.7023209056       18.4543205611
  C         3.5228697270        9.9707440578       17.4920461260
  H         3.2225027242       11.5194035578       18.9334643545
  C         0.7214722503        9.6789940289       28.9686858024
  C        -1.6351506705        9.6587040772       27.8814558586
  C        -1.3076261236       12.2091823797       30.0490564402
  C        -1.2718897649       13.5812543482       30.3174099403
  H         7.2611938218       12.8788024296       23.0553381843
  H         5.7977687599       12.4673434272       22.1377944330
  C         7.2131457422       13.3779777282       20.9964839918
  S         2.1901609180        5.7990008669       19.8048536415
  N         2.7803395009        6.2675409130       18.3782398655
  C         3.4786631754        8.4476666825       17.2752096559
  H         3.8941363728       10.6780908852       16.7342659098
  H         1.2665519332        9.1425904025       28.2227811301
  H         0.2571778314        8.9292782816       29.6417478023
  C         1.7776774711       10.5110688037       29.7151738110
  H        -1.5301102524        8.8311947450       27.1042128790
  H        -1.7595709035        9.2075171615       28.8679098848
  C        -2.8636669967       10.4272917461       27.5827076792
  H        -1.5780343171       11.4827611734       30.7944733636
  C        -1.4584043472       14.3230798397       31.6396495637
  H         7.8300585705       12.5021985448       20.8527704973
  H         7.8703709599       14.2108174693       20.7954349699
  C         6.1649120542       13.2487463121       19.8240180014
  C         3.7225408054        7.8099505968       16.0068070665
  H         2.1928664252       11.2356823695       28.9900139829
  H         1.3313947309       10.9415274190       30.5551077607
  C         2.8904375792        9.5608218506       30.2038858143
  H        -2.6081635725       11.2238669325       26.9599202181
  H        -3.2172543729       10.9096402262       28.5528815096
  C        -4.0430967130        9.5292418256       27.0690995033
  C        -1.4045394957       15.7450751566       31.8266915110
  C        -1.7206714649       13.4979734658       32.8310230868
  H         5.9100987118       12.2232756187       19.7701126108
  H         5.2996141320       13.8653155384       20.0507836043
  C         6.9705589065       13.5351208127       18.5728295932
  H         3.5129678205        6.7464810184       16.0219545611
  C         3.8557238456        8.2618453309       14.7000878587
  H         3.2764573831        9.0362088783       29.3875889256
  H         2.5640496896        8.8924492638       31.0279274813
  C         4.1682924237       10.2743348507       30.7784108978
  H        -3.7120264713        8.9598022049       26.2538171432
  H        -4.3903052972        8.8561948967       27.8257215559
  C        -5.2834206686       10.4184635348       26.7605338563
  N        -1.2561404084       16.6909102549       30.8466131947
  C        -1.5691335419       16.2975581795       33.0649823778
  C        -1.7867893859       14.0649641890       34.0865627753
  H        -1.7696624185       12.4267287455       32.7898888442
  H         7.6393121522       12.6846613882       18.3387819930
  H         6.3301284231       13.5605013662       17.6097852419
  H         7.6238534217       14.4110659674       18.6679247196
  S         4.0607891149        9.8563239867       14.0951087855
  C         3.9048794107        7.1665825771       13.6191761396
  H         4.6095075325       11.0945686274       30.2243083932
  H         3.8671665107       10.8316542487       31.7000428078
  C         5.2210177899        9.2714555798       31.3721929911
  H        -4.9207037287       11.2631532893       26.1770424618
  H        -5.7988551123       10.8569124322       27.6268994194
  C        -6.3881083863        9.7512226804       26.0089193609
  S        -1.1682213492       18.1331690555       31.5392748262
  N        -1.5245068276       17.6870733834       33.0634484537
  C        -1.9584011957       15.5095565004       34.1970395893
  H        -1.7734702150       13.4086423403       34.9504887065
  C         4.1311273657        9.1103037762       12.4906637527
  N         4.1892284615        7.7721640812       12.4533694007
  O         3.8511780594        5.9830557326       13.8454284544
  H         4.8375810229        8.5288012342       32.0969627082
  H         5.8200112069        9.8549856793       32.0816490885
  C         6.2627521645        8.6422154131       30.3683170140
  H        -6.0705647890        9.1445901229       25.1033515618
  H        -6.9037549937        9.0137561551       26.6309942421
  C        -7.2507724486       10.8451477914       25.4274366405
  C        -2.2471123760       16.1709926583       35.4413014361
  S         4.5467725361        9.8958728241       11.0183244044
  C         4.2889602618        7.0387661213       11.1911176517
  H         6.0267192729        8.7893408179       29.3255765554
  H         7.2305604980        9.0612495009       30.6366050785
  C         6.5304621071        7.1354401391       30.5085264636
  H        -6.5895727087       11.1277507625       24.5589030870
  H        -7.4229675074       11.7382216180       26.0114000266
  C        -8.5564899827       10.2911697840       24.8685654223
  H        -1.9383479601       17.1911149984       35.5353097788
  C        -2.8949339335       15.8102051567       36.5631893513
  H         5.0548039034        7.4178791334       10.5144667194
  H         4.6076801221        5.9708914010       11.3644987509
  C         2.8847606884        6.8895784118       10.5693071796
  H         7.0353041671        6.8897298229       29.5617781657
  H         5.5173417134        6.6423657963       30.4258925690
  C         7.3914830582        6.7768222941       31.7284956041
  H        -8.6270236247       10.8340790613       23.9131311575
  H        -8.4098143069        9.1861626148       24.6241222205
  C        -9.7320104364       10.5856286331       25.7954861529
  S        -3.6240771412       14.2666476740       36.8101690358
  C        -3.1069634192       16.8124526149       37.6090846057
  H         2.6395718745        7.7005795324        9.8630207705
  H         2.7418917516        5.8963765425       10.0784125869
  H         2.1303408812        6.9343981575       11.3975674282
  H         6.8275321347        7.2552994404       32.6113335268
  H         8.4063125877        7.1606974874       31.6428270378
  H         7.4355086562        5.6801633558       31.8297876945
  H        -9.7694924368       11.6400112367       25.8072728972
  H        -9.5619919525       10.2162961103       26.8024083851
  H       -10.7817645332       10.3048843688       25.5373855588
  C        -4.2663013629       15.0508776369       38.2704794612
  N        -3.8949220969       16.3140385637       38.5294885903
  O        -2.6627330082       17.9529925131       37.6184732155
  S        -5.1516070527       14.2407895718       39.5238215736
  C        -4.3076401822       17.1193303090       39.7020765766
  H        -4.6661751678       18.0841938348       39.3999684698
  H        -5.1756280889       16.7668175301       40.2981345677
  C        -3.0655494294       17.3311766085       40.6609947606
  H        -2.8804086354       16.2495944731       40.9159127580
  H        -2.1611423638       17.6990172068       40.1269675767
  H        -3.3180754177       18.0798848534       41.4680760672
