352
 i =    70000, time =    70000.000, E =        25.3002571759
  H        12.5883910260        4.9329235549       31.9443109898
  C        11.8057218081        5.3692575104       31.2942490505
  H        11.1425628900        4.6148506484       30.9985179548
  C        12.3879812369        6.0685297172       30.0774396474
  C        10.8974799185        6.3266151819       32.0649483565
  C        12.7863223345        5.3359371404       28.8002307646
  H        11.6122308548        6.8336213414       29.9179073832
  H        13.1263380145        6.7702273483       30.3925434277
  H        10.5985528180        5.7494302605       32.9459273970
  H        11.3987794243        7.2568758041       32.3362804435
  H        10.0675039695        6.6886769925       31.4614207972
  C        11.7083072319        4.7377660136       27.8883156459
  H        13.4569449568        4.4313652087       29.0241542948
  H        13.3175177680        6.0790193820       28.2721846426
  C        10.5599537016        5.7118627671       27.5099586130
  H        12.2181231295        4.4239275813       27.0437343783
  H        11.3177069537        3.8274321668       28.3029151210
  C         9.6984283082        5.0235861470       26.4191280096
  H        11.1109384212        6.5069529519       27.0630112065
  H         9.9297890713        6.0250044257       28.3473883706
  C         8.4027102658        5.6845584235       26.0847571035
  H        10.2704329704        4.7420493226       25.5538373479
  H         9.4387642674        4.0676105430       26.9990979561
  C         7.4074634656        4.8070082446       25.3154685556
  H         7.8820004193        5.9932418611       26.9319295550
  H         8.5965733273        6.5526402374       25.4257317326
  C         7.1152830882        3.4552881162       26.0174196757
  C         8.0699555916        4.0621933813       24.1886428881
  C         6.1999310848        5.6480247269       24.7505525910
  C         7.5029814422        2.3162157254       25.2725375878
  C         6.6143944673        3.0668736313       27.2770002668
  C         7.9843256148        2.7412081158       24.0418134823
  C         8.5142034387        4.7125645493       23.0824815527
  H         5.7034860073        5.0639730248       23.9836755760
  H         6.4867078027        6.5740899887       24.3003918954
  C         5.2296264559        6.0490403537       25.8718096723
  S         7.2857165024        0.8711572162       26.1173843730
  C         6.5981092734        1.6918811939       27.4469245314
  H         6.3417101953        3.7901355900       28.0459897223
  C         8.4555584335        2.1129493442       22.9286344569
  H         8.5603680197        5.7747573538       23.1893274971
  C         8.8619840379        4.1301414089       21.9153422167
  H         5.1949414606        5.2372536226       26.5740697751
  H         5.6745543436        6.8945838764       26.4319465253
  C         3.7833095149        6.2855576503       25.4715460542
  C         6.1232500365        0.9350415961       28.6714474291
  C         8.7746443290        2.8018472825       21.7436872586
  H         8.4032985995        1.0608206906       23.0051614590
  C         9.2414880172        4.5430595044       20.6317042960
  H         3.5659494635        5.3944640884       24.9276823358
  H         3.6509839527        7.1130274829       24.7848696087
  C         2.8853569577        6.5434304484       26.6137673680
  C         6.1733664567       -0.4636644699       28.9000379748
  C         5.8336761989        1.7393403129       29.8714149038
  C         9.1170183425        2.1197470647       20.4290858609
  C         9.3828812729        3.4741277019       19.7486351615
  S         9.5705485975        6.0543297721       19.8198094675
  H         2.0281580079        7.2068633729       26.3222952203
  H         3.4888559319        6.9636019797       27.4358581933
  C         2.3681151022        5.2842514397       27.1905289411
  N         6.5434952255       -1.4399937599       27.9595109506
  C         5.8842812310       -1.0065370737       30.1864662127
  C         5.4249125070        1.1822144845       31.0753202452
  H         5.7525760368        2.8088332374       29.8165350872
  C         7.9189399257        1.4068030650       19.8524040610
  C        10.4326425012        1.2931962854       20.7031351724
  C         9.7424247437        3.8841872717       18.4161184764
  C         9.8534104388        5.2124389168       18.2815850553
  H         1.6119411131        4.9195737200       26.4548051257
  H         3.1432262641        4.5058704399       27.1951221700
  C         1.4523567447        5.3347443260       28.4848162215
  S         6.5673713187       -2.8880917495       28.6917614984
  N         5.9304755975       -2.3881760101       30.1366771307
  C         5.4862214213       -0.2630531431       31.3182478350
  H         5.1722124032        1.8731362961       31.8340323311
  H         7.5896545944        0.6449332456       20.6218854893
  H         8.2025907092        0.6528790073       19.1233508522
  C         6.8863762440        2.5132793994       19.4612319722
  H        10.7152217284        0.5177487035       20.0260881532
  H        10.1841388419        0.6410677830       21.5660635633
  C        11.6292682102        2.0725914906       20.9405904349
  H         9.8062970635        3.1097520275       17.7097924678
  C        10.1945547823        5.9924281007       17.0569028283
  H         0.7278841742        4.5732532358       28.5818084787
  H         0.9150555374        6.2942243894       28.5397616958
  C         2.3343605462        5.2895147134       29.7564639220
  C         5.2151603405       -0.9687979610       32.5520965106
  H         7.1866460674        3.0159698892       18.5457146925
  H         6.8006239821        3.4082661674       20.1244624904
  C         5.4154307775        2.0038018754       19.2100514950
  H        11.3825860952        2.6999880741       21.8280811030
  H        11.7933018307        2.8358095726       20.1768367599
  C        12.8888475817        1.1927054688       21.0417422559
  C        10.2959018700        7.3833199248       16.9356491965
  C        10.5721400546        5.2429513952       15.8699862207
  H         3.0632558721        4.4707152132       29.7816512270
  H         2.9317361376        6.1383851163       29.9571543613
  C         1.4967510547        5.1273842874       31.0474152302
  H         5.3558766154       -2.0215456256       32.4985260286
  C         4.9704270740       -0.5874141876       33.8531222805
  H         4.6663527258        2.8170138150       19.3479324369
  H         5.2205692703        1.2766959364       19.9058859380
  C         5.1908739904        1.4259171272       17.7833783276
  H        12.7738629103        0.4245175771       21.7829507734
  H        13.2427709035        0.7532553379       20.0630598856
  C        14.1428900650        2.0230001236       21.4656855230
  N         9.9896300998        8.3891908486       17.9283873842
  C        10.6760705519        7.9934262718       15.7324523023
  C        10.7419210544        5.7716366218       14.6213592883
  H        10.4659628687        4.1785591719       15.8792650729
  H         1.1572973241        6.1789683368       31.2827688701
  H         0.7482063934        4.4356538823       30.9779766290
  H         2.1244301540        4.8857881626       31.8093384651
  S         4.9293067501        1.0292695204       34.4499744106
  C         4.8020625614       -1.6483050957       34.8627030095
  H         5.3833253176        2.0858467811       16.9850990702
  H         5.9833692802        0.7201742573       17.6048224299
  C         3.8466526391        0.6861906658       17.6911604677
  H        13.8220020324        2.8966848409       22.0414582413
  H        14.7092697606        2.2898595556       20.5728270008
  C        15.2177859632        1.4064446801       22.4176013383
  S        10.4215800150        9.8940841596       17.3342082301
  N        10.9690170074        9.3429446857       15.8723476366
  C        10.8092028594        7.2407496015       14.5070552308
  H        10.7751856239        5.1825614443       13.7709655938
  C         4.6563899579        0.2756402957       36.0386492351
  N         4.7132120564       -1.1118294362       36.0669797907
  O         4.7225446718       -2.8246841673       34.5555581175
  H         3.7637590702        0.3578155101       16.6594389894
  H         3.1637486279        1.5544989880       17.8073198945
  C         3.5262802563       -0.5099125394       18.6290074547
  H        14.6587715752        1.0360880081       23.3393319554
  H        15.6068854596        0.5310724065       21.8689870773
  C        16.2837550193        2.4746537428       22.8650946489
  C        11.1184874667        7.9356551025       13.3080510695
  S         4.4910283373        1.0324003305       37.5421776592
  C         4.7709125632       -1.8928070365       37.2961668853
  H         4.1478371631       -0.6040787905       19.4903066385
  H         2.5501751584       -0.4100106747       19.0453786617
  C         3.6163705058       -1.9060235922       17.8628982891
  H        15.7844031422        3.3347163941       23.2973247716
  H        16.9062084221        2.8954362096       22.0459995138
  C        17.1946942995        1.7895560291       23.8704638971
  H        10.8790407221        8.9687230181       13.3900188789
  C        11.6143340101        7.5869074703       12.1129274304
  H         4.1304823517       -1.4278259226       38.0617139655
  H         4.3236124383       -2.9139941994       37.2492701925
  C         6.1895888056       -2.0438164323       37.8999210975
  H         4.0219147142       -2.7876979525       18.2997681992
  H         4.2481981534       -1.7226041047       16.9945857033
  C         2.2737122698       -2.2730702779       17.2454433077
  H        17.2831592872        2.2586932069       24.8387554059
  H        16.7780108379        0.7856208224       24.0010516942
  C        18.5618934333        1.5959419981       23.2599448628
  S        12.2328891844        6.0303205070       11.6176671775
  C        11.6819762820        8.6806858733       11.0708604889
  H         6.2594767395       -1.2296801178       38.6102033544
  H         6.4298664137       -3.0475442460       38.2798147777
  H         6.9339355667       -1.8106213387       37.1767015155
  H         2.0424784517       -1.6463089765       16.3756923373
  H         1.4364332708       -1.9824458081       17.8474578588
  H         2.2294184565       -3.2715621836       16.9023355559
  H        19.1739873474        2.5319546741       23.1454331783
  H        18.6460593443        1.0968652651       22.2547292678
  H        19.1991556501        0.9912040398       24.0149458883
  C        12.6080761139        6.8048024713       10.0283872322
  N        12.2194450038        8.1176664017        9.9798154987
  O        11.3941997451        9.8561520439       11.2490854603
  S        13.5492396269        6.1337557475        8.7349343010
  C        12.4152494188        9.0098980423        8.9358091490
  H        12.9299514699       10.0066643526        9.3304819715
  H        13.0633281998        8.5926941249        8.1214482468
  C        11.0400808483        9.3309038534        8.2887261583
  H        10.8168841518       10.3315062039        8.5901095300
  H        11.1612587191        9.2378699304        7.1277391537
  H        10.2538926749        8.6110496923        8.6456551928
  H        -2.8903794112       14.9440436643       16.4868534261
  C        -2.4476585564       13.9761541876       16.3741514736
  H        -3.2546533908       13.2853542848       16.6831869653
  C        -1.1749884871       13.8716031343       17.2839327313
  C        -2.0392706262       13.5862328974       14.9726686290
  C        -1.5828587635       14.2552106616       18.7498767926
  H        -0.6097861581       12.9166706986       17.1876314445
  H        -0.4848992805       14.5933036743       16.7605567541
  H        -1.1311723679       14.0209329285       14.7794565573
  H        -1.9071391963       12.4832244618       14.8256667110
  H        -2.6955604658       14.0123850465       14.2522919546
  C        -1.6411577764       13.0266765436       19.7414995997
  H        -2.5833704684       14.7931873606       18.7156025298
  H        -0.8747367591       14.9480153879       19.2317704372
  C        -2.1406771227       13.5139867954       21.1000984375
  H        -2.2511903670       12.2129031590       19.2913609480
  H        -0.5917111349       12.6768310209       19.8489885300
  C        -1.3817395270       12.9003173841       22.2645212953
  H        -3.2183096144       13.3407531654       21.1823628534
  H        -1.9771524140       14.6070735825       21.1925264984
  C         0.0131640278       13.5987529297       22.4711412548
  H        -1.8919402761       12.7534548195       23.2195926000
  H        -1.1691802887       11.9127511169       21.9432268974
  C         1.2012768552       13.0538112926       23.2657968898
  H         0.2909639326       13.8057944201       21.4444239208
  H        -0.2823650601       14.5783172840       22.9282098982
  C         1.6450095371       11.7014612519       22.6591170636
  C         0.7902495922       12.3263093855       24.5091113113
  C         2.3492942993       14.0531683010       23.4513125144
  C         1.4815217260       10.6098659587       23.5070975786
  C         2.1444485887       11.3247715707       21.4180418869
  C         0.8814736405       10.9785572319       24.6555573604
  C         0.3804751877       12.9911191590       25.6305186586
  H         2.4813476152       14.6865946412       22.6386443924
  H         2.1379530146       14.7464315236       24.2683322010
  C         3.6332654640       13.2561126619       23.8409538388
  S         1.9468002520        9.0680953304       22.8581314154
  C         2.3328123425        9.9400444474       21.3499584477
  H         2.1866250198       12.0865029428       20.6278672308
  C         0.4984904455       10.3676189258       25.7915336518
  H         0.2599795450       14.0419851232       25.6833765144
  C         0.0657043390       12.3489793872       26.7738737523
  H         3.8580696172       12.5787156627       23.0700497505
  H         3.4450873605       12.5571823215       24.6434645814
  C         4.8353708043       14.2326936493       24.2464633225
  C         2.9461759901        9.2888514108       20.1397451800
  C        -0.0033607540       10.9986907200       26.8862330745
  H         0.5591953728        9.2715925875       25.8670788203
  C        -0.4124036308       12.6678235098       28.0059057928
  H         5.2844093798       13.5892294942       25.0058373006
  H         4.5538145676       15.2161850268       24.7184994865
  C         5.7121401584       14.5320975607       22.9901346499
  C         2.8876495656        7.9181411547       19.8328405381
  C         3.4130458081       10.1877670048       19.0528009664
  C        -0.3584795304       10.2190148900       28.1152683934
  C        -0.5718801664       11.5750956337       28.8126717770
  S        -0.6415974167       14.1520024552       28.8373089382
  H         6.4026880366       15.2931643788       23.1635536330
  H         5.0886635496       14.9078416556       22.2192595985
  C         6.3306866601       13.2762621254       22.3551907159
  N         2.4282233385        6.9591038432       20.7387284053
  C         3.1012219830        7.3716740917       18.5896228810
  C         3.6876189263        9.5945760581       17.7514227482
  H         3.5323787291       11.2704445366       19.2246984070
  C         0.7126849777        9.3369315173       28.8516605179
  C        -1.6369648083        9.3725649673       27.9937381291
  C        -0.9056269969       11.9496436522       30.1575475521
  C        -1.0204540477       13.2614394471       30.3462344470
  H         6.8387589803       12.7594842349       23.1261733046
  H         5.5382191557       12.5204514297       22.0225168506
  C         7.3293735467       13.5683257026       21.2418301780
  S         2.6575371535        5.5005554421       20.0697247977
  N         3.0107108099        5.9950117150       18.5101877942
  C         3.4844199034        8.1436403916       17.4593605024
  H         3.9336708165       10.2036745808       16.9467478972
  H         1.1065455673        8.5058002083       28.2080000888
  H         0.3176770630        9.0131686140       29.8178677340
  C         1.9660153781       10.1525184508       29.1921320464
  H        -1.6009248738        8.6300032391       27.1991357207
  H        -1.8483862035        8.8793256110       28.8990001621
  C        -2.9192425723       10.1757367144       27.7298241860
  H        -1.1380849268       11.2547409944       30.9755520462
  C        -1.3876702109       13.9821249618       31.6039772832
  H         8.1602098263       12.8544235173       21.3353507116
  H         7.8476100319       14.5846447268       21.4689876398
  C         6.7040998704       13.8485221124       19.8908631154
  C         3.7228666821        7.4253316567       16.1928576898
  H         2.4023067407       10.6626881736       28.3789972965
  H         1.6906701359       10.9632108214       29.9110396738
  C         2.9903628848        9.1685777104       29.8879716118
  H        -2.7935851106       10.8126242132       26.8378616319
  H        -3.1350281811       10.9387410382       28.5649508343
  C        -4.1357248149        9.3132309797       27.4818772057
  C        -1.4729491622       15.3899276239       31.7641200411
  C        -1.7195373389       13.1831472732       32.7568268436
  H         5.8158446861       13.4229185786       19.6744742128
  H         6.4811904595       14.9017257255       19.8562999740
  C         7.7154420964       13.5109554245       18.7592742760
  H         3.6370315485        6.3934326974       16.3014240831
  C         4.0162093541        7.8000201592       14.9187961331
  H         3.1058421945        8.2991858998       29.2381309663
  H         2.6512909972        8.8912433209       30.8866723040
  C         4.4449603291        9.7420359078       29.9252872240
  H        -3.8883884428        8.6469504467       26.6806238530
  H        -4.2443191204        8.6611480404       28.3758534960
  C        -5.4009244444       10.1352106477       27.1772569775
  N        -1.3158804649       16.3789742889       30.7922530385
  C        -1.7348526955       15.9889878618       33.0024583816
  C        -1.9590519785       13.7552609587       33.9805605102
  H        -1.8352559711       12.1659580242       32.6831375682
  H         8.7205213740       13.7660216123       19.2014448217
  H         7.4962997886       12.5309080835       18.4103247690
  H         7.5601092337       14.1873157457       17.9303309233
  S         4.4231263615        9.3502323109       14.4098252918
  C         4.0231365847        6.7124957031       13.9140189031
  H         4.5893537793       10.4189286201       29.0591397868
  H         4.4435805375       10.5182805351       30.7449911597
  C         5.5264880240        8.5885935525       30.0432683019
  H        -4.9539126183       11.0448228427       26.8434256023
  H        -6.0581857909       10.4681444234       28.0019773686
  C        -6.3932202324        9.4139353948       26.1585918162
  S        -1.2772381251       17.8598968941       31.5048530855
  N        -1.7221829562       17.3853478638       32.9608495958
  C        -2.0325003733       15.2418235185       34.1648467499
  H        -2.2520559514       13.0861229737       34.7590775398
  C         4.4032803119        8.6080774323       12.7875154889
  N         4.3338487866        7.2470216083       12.6996827790
  O         3.9546994944        5.5149127703       14.1891445835
  H         6.5734486644        8.9219529083       29.8771626649
  H         5.3948286373        7.9004232168       29.1790618775
  C         5.4719311528        7.6930509448       31.3207944856
  H        -5.7646586136        8.8523759010       25.4492751582
  H        -7.1409910671        8.8116640343       26.6215816279
  C        -7.1267504703       10.5049035851       25.4601253940
  C        -2.2485959409       15.8738861646       35.3988661099
  S         4.7995215823        9.5522989748       11.3480508959
  C         4.2151831856        6.3974191888       11.4811955387
  H         5.5340365823        8.2713397329       32.2387266272
  H         4.4855561485        7.1812357253       31.3588263033
  C         6.4652395544        6.5704187364       31.3427051608
  H        -6.3912377171       10.9827421719       24.6943612728
  H        -7.4628157651       11.2418646864       26.2296778198
  C        -8.3592799433        9.8610842615       24.7426978805
  H        -1.9557346757       16.8990981656       35.4175647977
  C        -2.7009514128       15.4771464898       36.6188614250
  H         4.9719496191        6.6906101353       10.7263784511
  H         4.2895632879        5.2991612156       11.5832606053
  C         2.7990124856        6.4977166302       10.8638012227
  H         5.9972257602        5.9616274243       32.1244967064
  H         7.4540731748        6.7750536973       31.7192384434
  C         6.5712353128        5.7431022550       30.0375542029
  H        -8.6946341804       10.6487793894       24.0696129218
  H        -8.0396911753        8.9355906941       24.1995428815
  C        -9.5246774520        9.7498678425       25.7081931469
  S        -3.1560589211       13.8630470955       37.1162848042
  C        -2.9174606241       16.5676247264       37.6343680442
  H         2.0767708256        6.8218963565       11.5879952814
  H         2.9175170842        7.1951113985       10.0041102981
  H         2.3864234081        5.6031473988       10.3968393735
  H         7.2958666633        4.9486330993       30.2477613090
  H         6.9810799886        6.2236289762       29.1851185459
  H         5.5915847701        5.4052225611       29.6908111979
  H        -9.1869507809        9.7527393385       26.7397493709
  H       -10.0241319081        8.7529564533       25.5718362800
  H       -10.1901921168       10.6122318401       25.5873778532
  C        -3.7080896246       14.6350560979       38.5573115962
  N        -3.4427049204       15.9602649779       38.7032415317
  O        -2.7013927532       17.7444393017       37.4386520313
  S        -4.2033831592       13.7045381436       39.9314984510
  C        -3.6362824419       16.7798666721       39.9145349930
  H        -3.8131067418       17.8197769092       39.7049418923
  H        -4.5791568194       16.4068270227       40.3012224145
  C        -2.4069851155       16.6048635998       40.8318541102
  H        -2.6490444726       15.8907670152       41.5805100684
  H        -1.4549475513       16.2113710308       40.2577088515
  H        -2.1774861166       17.6107218156       41.1705685078
