352
 i =    78900, time =    78900.000, E =        24.7694104511
  H        11.1813233310        7.6574355973       31.5623075922
  C        11.6128431398        6.7492980644       31.9211399061
  H        12.4552379027        6.9440570260       32.5371290148
  C        12.1377084194        5.8363959469       30.8190737001
  C        10.7620355681        6.0911550925       33.0113437351
  C        11.0487359130        5.1413727514       30.0289456291
  H        12.7212211276        6.5144131085       30.1612283881
  H        12.7913861690        5.1303647009       31.3470252427
  H        11.1209470440        5.1056534096       33.4137027665
  H        10.7797694957        6.6234187099       33.9802750783
  H         9.7200915847        6.1313295190       32.7025827639
  C        10.1496767780        5.9930691248       29.1416458686
  H        10.4992424848        4.5937993848       30.8098661614
  H        11.6149869805        4.4055030937       29.4464101159
  C        10.6666652068        6.0895241614       27.6402723730
  H         9.1107317856        5.7377283096       29.3030112751
  H        10.1717735426        6.9854324458       29.5794967141
  C         9.8292225794        5.2802917665       26.6651226789
  H        11.6437025796        5.7321804011       27.5520647410
  H        10.5713712587        7.0269537950       27.1671684358
  C         8.4979934392        5.8950068700       26.2416497652
  H        10.4111966537        4.9063826753       25.8293163457
  H         9.5519516659        4.3559958300       27.1952021776
  C         7.4570031844        5.0116105136       25.4967217133
  H         7.9093763558        6.1970117667       27.0730471283
  H         8.6818947895        6.7043496851       25.6438987771
  C         7.1982841316        3.6473088883       26.2225283410
  C         7.8441707741        4.2366657046       24.2848881701
  C         6.1471019794        5.5967885766       25.0484504084
  C         7.2775174752        2.5312112671       25.3947640312
  C         6.8207349135        3.2780870541       27.4822179347
  C         7.8036767033        2.8758740123       24.1778706888
  C         8.2117723346        4.8649969259       23.0940185445
  H         5.6866106127        4.8345402408       24.3541774356
  H         6.4159365791        6.4832743466       24.4855994109
  C         5.0917816290        5.9374321907       26.0791296604
  S         6.9739508218        0.9607240435       26.1935180163
  C         6.6505316497        1.9327407696       27.6281673838
  H         6.5960422494        4.0382568353       28.2522805855
  C         8.0343932465        2.2593552287       22.9373574638
  H         8.2915866770        5.9024145840       23.1118238052
  C         8.4886720133        4.1945255328       21.8675634258
  H         5.1203979845        5.0808778439       26.7837472756
  H         5.3909346941        6.7432663223       26.6808279259
  C         3.7354375976        6.2498940273       25.4813459892
  C         6.0893713300        1.3272195401       28.8271883255
  C         8.3747988713        2.8696076730       21.7438510921
  H         8.0052995509        1.1435042754       22.8291674462
  C         8.9410273118        4.6333946110       20.6698532371
  H         3.4574592636        5.5857531991       24.6991053811
  H         3.9067891864        7.2002263798       24.9648040338
  C         2.4916013534        6.4866963213       26.3667663094
  C         6.1249190688       -0.0407867711       29.2123635561
  C         5.5399863093        2.2492631524       29.9312311820
  C         8.7627892315        2.2259883231       20.4462974573
  C         9.1248133864        3.5970593116       19.7911009071
  S         9.3288787800        6.1803589299       19.9684185542
  H         1.7625788344        6.8572502339       25.6586087771
  H         2.6752452269        7.2070407651       27.1663259059
  C         1.9065384877        5.2758918713       26.9781112400
  N         6.5805567691       -1.0757679474       28.2412009349
  C         5.6400186167       -0.5202501518       30.4081619649
  C         5.3402866129        1.7920729182       31.2313005527
  H         5.4760651243        3.3127864979       29.7324990928
  C         7.5811443248        1.5744193080       19.7497370759
  C        10.0370118336        1.3617270191       20.5683481339
  C         9.5383692254        4.0232148276       18.5389162944
  C         9.7177800192        5.4062362135       18.4607194694
  H         1.8275258011        4.4446439011       26.3181070442
  H         2.5101000943        5.0365969905       27.8115280562
  C         0.4540041906        5.4659909754       27.4997181261
  S         6.5475359245       -2.4942690640       29.1213583758
  N         5.8757277951       -1.8837439693       30.5283111198
  C         5.3121372855        0.3296954161       31.5533457756
  H         4.9973715073        2.4556345001       32.0224587116
  H         7.3147150311        0.7330752959       20.3487924581
  H         7.9648408743        1.1192841678       18.8891051587
  C         6.3841026858        2.5090960266       19.4613103122
  H        10.4609805239        1.1926547705       19.5505364286
  H         9.8258588973        0.3782596605       20.9743319243
  C        11.0798208173        2.0962117380       21.3963872709
  H         9.7151130386        3.3021200506       17.7859729639
  C        10.0529110031        6.2304974964       17.2945328482
  H        -0.1264186557        4.8272398622       26.8001800904
  H         0.1663821673        6.3892348041       27.3099808154
  C         0.2844095697        4.9432382191       28.9346251463
  C         5.0124012156       -0.1853297681       32.8240705199
  H         6.6706449471        3.0199254502       18.5510730570
  H         6.2798005208        3.2751124885       20.2131051724
  C         5.0259098026        1.7272723989       19.3011200792
  H        10.6955712991        2.1222519324       22.4463648274
  H        11.1815373329        3.2090870897       21.0693133564
  C        12.4185524198        1.2841352152       21.4321892173
  C         9.9517990233        7.6375860165       17.2382377763
  C        10.4689388273        5.5316847328       16.1027687468
  H        -0.7651117123        4.8667174389       29.2236242339
  H         0.7937666580        3.9588961665       29.0679821203
  C         0.9803084408        5.8461675179       29.9981672607
  H         5.1425712596       -1.2371748111       32.8926866624
  C         4.8477045481        0.3362010656       34.0648601821
  H         4.0799344027        2.3366404444       19.5172600850
  H         5.0544321769        0.9615194799       20.0626740509
  C         4.7948497999        1.2522296806       17.8692150488
  H        12.2629050687        0.4445343869       22.1590805098
  H        12.6172502976        0.9165930062       20.3914898570
  C        13.6095511158        2.1830550383       21.8965339776
  N         9.6867497042        8.5969227670       18.2550560109
  C        10.2344639597        8.2809822163       16.0498435399
  C        10.7363482406        6.2224435760       14.9021307228
  H        10.5183750876        4.4694365432       16.0482686849
  H         0.9994698406        6.9203339811       29.6887208316
  H         0.4992289033        5.8461175822       30.9710934236
  H         2.0665843086        5.6070906888       30.1522974130
  S         4.4664107464        1.9276567962       34.5356378481
  C         4.8827382694       -0.5921236505       35.1656550670
  H         4.7173306043        2.0357355161       17.1503845106
  H         5.7124323529        0.6835280518       17.5994432562
  C         3.5047450497        0.4574353847       17.7052103750
  H        13.2520583602        3.0060981214       22.5189859885
  H        14.1527972851        2.6026431417       21.1025056680
  C        14.7960385666        1.4619018538       22.7115492630
  S         9.7325869355       10.0276054790       17.5509261035
  N        10.1128712598        9.6602391718       16.0606091961
  C        10.6008324409        7.6797259204       14.8399170629
  H        10.8327202377        5.6731517380       14.0206931940
  C         4.3909536593        1.3274386906       36.1858181956
  N         4.4674579022        0.0061883196       36.3059668543
  O         5.1727650052       -1.7556043155       35.1047772285
  H         3.1673290393        0.4917656261       16.6484971660
  H         2.6878177353        0.9604259163       18.2133042350
  C         3.4423728839       -0.9722652854       18.1366653648
  H        14.4175815253        0.8072770097       23.4539102548
  H        15.3228015965        0.7657806511       21.9338710292
  C        15.7318874248        2.5237612379       23.2954896626
  C        10.7626621523        8.5385528399       13.6999078749
  S         3.9301713071        2.2253551761       37.6191281153
  C         4.4862234889       -0.7560759566       37.5495372268
  H         4.2248033550       -1.5067405912       17.6873913454
  H         3.6877999087       -0.8162374826       19.1423830259
  C         2.1279812278       -1.5967016176       18.0019634675
  H        15.1437589416        2.9929596548       24.1145309681
  H        16.0281020642        3.3676029468       22.6253669078
  C        17.0052372709        1.7401612091       23.8394236263
  H        10.6497831723        9.6191671764       13.7989594959
  C        11.2800058459        8.1943190902       12.4810232577
  H         3.6379291755       -0.4138182463       38.1618780538
  H         4.3114741778       -1.8014084500       37.3480576304
  C         5.8867151061       -0.6964611077       38.1753062021
  H         1.2736138814       -0.9512226772       18.1887396182
  H         2.0030899594       -2.5007365028       18.6162832398
  C         2.0471983435       -2.1456933339       16.5823859166
  H        17.3806653921        2.3778029823       24.6372303664
  H        16.7113671002        0.7613647225       24.1142151749
  C        18.1239383763        1.6734593110       22.8177266642
  S        12.0273431969        6.7309265063       11.9418500920
  C        11.5869657347        9.3577141154       11.6793316905
  H         6.3880081559        0.2672501783       38.2698587132
  H         5.7996290151       -1.3179156981       39.0451027532
  H         6.6225630031       -1.1315869239       37.4813355394
  H         2.4547288833       -1.3396413817       15.9166230106
  H         1.0462656260       -2.3793113618       16.2844613454
  H         2.5702445003       -3.0641049580       16.5044386872
  H        17.9718954398        2.5253594939       22.0984517557
  H        18.0863793044        0.8539418441       22.1410878269
  H        19.1136149148        1.7319758241       23.2513130130
  C        12.6090068255        7.6374578041       10.5550056593
  N        12.2982076968        8.9181130322       10.6110411281
  O        11.0631226387       10.4689780383       11.7715481778
  S        13.5487743224        6.9473587133        9.2661837206
  C        12.4715885708        9.7903269542        9.4657002319
  H        12.4404421062       10.8166547807        9.7198775915
  H        13.4153184653        9.6060965119        8.9108356728
  C        11.1773807375        9.7083851231        8.5789710023
  H        10.9832828370       10.6582139376        8.0895212299
  H        11.2888099163        8.9729300176        7.7827963800
  H        10.2954532618        9.5376768174        9.1985088177
  H        -3.2349418740       15.0102185759       16.0018458050
  C        -3.1323614371       13.9696748063       16.2812403472
  H        -4.1038945531       13.4937666706       16.4366145909
  C        -2.1593648990       13.8042777952       17.4423019515
  C        -2.4717184004       13.3532220112       14.9596693427
  C        -2.6617073953       14.2209526165       18.8072627619
  H        -1.9548788300       12.7567634131       17.5294513490
  H        -1.1767766653       14.2921152768       17.4453434870
  H        -2.1687438840       12.3521685204       15.1446326451
  H        -3.2265288129       13.2714499418       14.1736115336
  H        -1.5770645426       13.9043162789       14.6844187557
  C        -1.5808665528       13.8535631052       19.7606176463
  H        -3.5614555092       13.6751835950       19.1305012990
  H        -2.9103805275       15.2846731846       18.9329252141
  C        -2.0582845933       13.9136396273       21.2453784485
  H        -1.2160983816       12.8647991932       19.5490917517
  H        -0.8453512546       14.6132639746       19.6114166968
  C        -1.1227001093       13.0804909149       21.9894422478
  H        -3.0335222724       13.4009666174       21.4556948009
  H        -2.2027541979       14.9392896886       21.5600394596
  C         0.0645438112       13.9703135640       22.3801635750
  H        -1.5443360914       12.8544953750       22.8894885237
  H        -0.8243368278       12.1544424984       21.4956561069
  C         1.2304405848       13.1963542725       23.1233527472
  H         0.4475704926       14.5163587615       21.5394609826
  H        -0.3221179412       14.7740431331       23.0728943699
  C         1.4480807621       11.8256818935       22.4186057580
  C         0.8741200026       12.4858063571       24.3483688174
  C         2.5263953400       14.0934212051       23.2572160897
  C         1.2469082316       10.7170744810       23.2574163159
  C         2.0015269280       11.3598754926       21.1994735045
  C         0.7906425253       11.1167661373       24.4351518077
  C         0.5178076189       13.1687302870       25.5073484033
  H         2.7409217379       14.4446922521       22.2233001113
  H         2.4135755426       14.9432037747       23.8545555156
  C         3.6774434423       13.2636550854       23.8516738072
  S         1.4741074963        9.1734866057       22.5029860823
  C         2.1394910009       10.0134600158       21.0916535240
  H         2.2897219631       12.1112900216       20.4086148181
  C         0.3938841530       10.5870174161       25.6125082023
  H         0.4963164352       14.2188632141       25.3725828652
  C         0.2032110229       12.5699890522       26.7029524585
  H         3.9088620828       12.3570774746       23.3317546748
  H         3.5922665269       13.0980017968       24.9450472148
  C         5.0117991358       14.0173840345       23.7373894538
  C         2.5394880668        9.3125123280       19.8393203796
  C         0.1395376795       11.2267471846       26.8364802765
  H         0.2864878349        9.5224830780       25.6730514936
  C        -0.2634182423       12.9761019290       27.9641926467
  H         5.6679834012       13.7112155348       24.5481947484
  H         4.7543729852       15.0571557410       24.0311055623
  C         5.5251540824       13.9450051682       22.2912027202
  C         2.5973032145        7.9238140459       19.5839943154
  C         3.0347228865       10.1201005312       18.7608978825
  C        -0.2157553595       10.5270586681       28.1024329564
  C        -0.5251110346       11.9062230569       28.7927011581
  S        -0.5960734082       14.4823080875       28.7044720501
  H         5.8574608921       14.9580550567       21.9879773458
  H         4.7834605304       13.6973839743       21.5746695950
  C         6.7451952032       13.0058479373       22.1615149218
  N         2.2239299578        6.9397060784       20.5080591527
  C         2.8057311277        7.4052065495       18.3356209980
  C         3.3494719078        9.5645116292       17.5219668808
  H         3.1669719476       11.1765591095       18.8480464222
  C         0.9785347976        9.7384183120       28.6290089293
  C        -1.5147245984        9.6030478507       27.9267585117
  C        -0.9368148755       12.3513350694       30.0465408681
  C        -0.9701500973       13.6999599582       30.1637018435
  H         7.3429167760       13.1384454600       23.0572520381
  H         6.4362663143       11.9573334492       22.1656384556
  C         7.5201059767       13.3186952333       20.8469386938
  S         2.2696567698        5.4780015695       19.7587215485
  N         2.6074334689        6.0218118893       18.2605216507
  C         3.1623438858        8.1256903003       17.2146933789
  H         3.7837440998       10.2266256259       16.8299005451
  H         1.3048000686        9.0411449944       27.8233176945
  H         0.6386008925        9.0384622471       29.3762703121
  C         2.0932162582       10.6110661662       29.1657560310
  H        -1.3101005420        8.8220239260       27.2609502341
  H        -1.7590234901        9.0847430072       28.8381074580
  C        -2.6428856606       10.4262935526       27.3136961580
  H        -1.1018236566       11.5990033513       30.8211693060
  C        -1.2661538309       14.3881058348       31.4973541962
  H         8.2696503998       12.5729037850       20.6847375020
  H         8.2087494805       14.1804629803       20.7841122161
  C         6.5675146234       13.4307628581       19.7041062876
  C         3.4388443392        7.3932169045       15.9905389700
  H         2.5155193416       11.2023350482       28.3898297123
  H         1.7331424602       11.4080469337       29.8500255706
  C         3.1320493862        9.7015038136       29.8332940811
  H        -2.3789840717       10.7133834664       26.2808902624
  H        -2.8758232779       11.2692223478       27.9343088977
  C        -3.9172577996        9.6549523663       27.0794960356
  C        -1.3639464288       15.8266230267       31.7236934000
  C        -1.5207056831       13.6043378758       32.7018605543
  H         5.8491944840       12.6348444883       19.7708293461
  H         6.0089927285       14.3184937617       19.6736032214
  C         7.3161810111       13.3087746325       18.3589705573
  H         3.4055724331        6.2971983475       16.0114556417
  C         3.8574446482        7.9048431099       14.7445986196
  H         3.3984836177        8.8517861428       29.1811088309
  H         2.7125456005        9.2878756986       30.7422612891
  C         4.5002191482       10.3205790502       30.0495282769
  H        -3.7358354696        9.1242493330       26.1685653815
  H        -4.1588932956        8.9204161247       27.9227648826
  C        -5.0753186546       10.5936933090       26.7652955673
  N        -1.2441481612       16.7751382425       30.6642065407
  C        -1.8297915665       16.3842910952       32.9024013730
  C        -1.8945874336       14.1892217271       33.8813498413
  H        -1.5934378661       12.5246380866       32.6810528704
  H         7.4024417479       14.2711324034       17.9364945215
  H         8.2927396311       12.8958860140       18.4360325479
  H         6.6807011765       12.6803821415       17.7464743953
  S         4.0455622530        9.5535264380       14.2331378493
  C         4.1471959268        6.9911255948       13.6196840416
  H         4.7745146879       10.7848933550       29.0446351050
  H         4.4240838061       11.1782702269       30.7215624232
  C         5.4507886041        9.3167678101       30.6207617884
  H        -4.7098683749       11.2600464284       26.0158549223
  H        -5.3375838621       11.0385245339       27.7403853448
  C        -6.2410099641        9.7812377607       26.2027805339
  S        -1.4724355211       18.2792483652       31.3166500814
  N        -1.8584604373       17.7985839407       32.8438266834
  C        -2.1040872283       15.6195579621       34.0517176598
  H        -2.1361469483       13.5551478582       34.7415731999
  C         4.5004049350        9.0171674750       12.6236461578
  N         4.4353831069        7.6876384670       12.4651275731
  O         4.2045343641        5.7968378176       13.7128659869
  H         4.8995477023        8.7976136156       31.4186088947
  H         6.2959633737        9.8283252160       31.0268128573
  C         5.9557684417        8.2383149643       29.6714352458
  H        -6.0307242515        8.9720065765       25.5153961953
  H        -6.8227876826        9.3436242069       26.9772427831
  C        -7.1246610321       10.7855899913       25.4203033186
  C        -2.5684460313       16.2648815383       35.2440896843
  S         5.0460379006       10.0062171928       11.2365801943
  C         4.5959874309        6.9115783223       11.2673299665
  H         5.6921389835        8.4131018039       28.5786403252
  H         7.0416448309        8.3612093082       29.7883767541
  C         5.6505483345        6.8326173102       30.0155510503
  H        -6.5720369449       11.1321085759       24.5422467167
  H        -7.3085246702       11.6616251354       26.1343321034
  C        -8.4781277464       10.2470436309       25.0067174050
  H        -2.5440753716       17.2978401983       35.1748755686
  C        -3.0201207944       15.8749376379       36.5318828858
  H         5.5272128938        7.2259715592       10.8106610640
  H         4.7621019860        5.8819299959       11.5609511335
  C         3.4253893362        7.0362500105       10.3448453981
  H         5.9000344109        6.1552673683       29.2385404913
  H         4.5926582394        6.5671940609       30.0828710654
  C         6.2537086365        6.3802674017       31.3539791207
  H        -8.8929244157       10.8596770241       24.2508953145
  H        -8.3991694817        9.2415239119       24.6365192033
  C        -9.4112985545       10.1228410991       26.1444478721
  S        -3.5651912954       14.3502150884       37.0652405708
  C        -3.0749576659       16.9588724687       37.5016811853
  H         3.6137918174        7.7001982271        9.4697332765
  H         3.2330936458        6.0338018468        9.9402300508
  H         2.5458843298        7.3850516442       10.9045179977
  H         6.0160925515        6.8863763634       32.2351677104
  H         7.3319901065        6.1479026436       31.2527299719
  H         5.8868260130        5.3541023846       31.4886576837
  H        -9.6818061636       11.1142100348       26.4911647247
  H        -9.0245771637        9.5224964778       27.0026299183
  H       -10.3328924973        9.6712098915       25.8897019506
  C        -3.8015335782       15.1926625626       38.6077494358
  N        -3.5451910472       16.4906981937       38.6214482640
  O        -2.7716797672       18.0967352894       37.2317913269
  S        -4.5989407175       14.4259313813       39.9838997876
  C        -3.6908071263       17.4435705309       39.7321577776
  H        -3.9247368555       18.4095932857       39.2857763766
  H        -4.5953532636       17.1690904374       40.1550506532
  C        -2.3932335184       17.4046171754       40.5869689510
  H        -2.4120427023       16.4315908358       41.1658953740
  H        -1.5341133252       17.4165004123       39.8554358703
  H        -2.3033491717       18.2900107294       41.1819726480
