352
 i =    43900, time =    43900.000, E =        24.9250125227
  H        12.3596430868        6.7133756900       32.1742590964
  C        11.7104783104        5.7585204280       32.0857569412
  H        12.2868908932        5.0024558788       31.6245752487
  C        10.5397303344        6.1506826300       31.0994689748
  C        11.2558949966        5.4952891070       33.4845871091
  C        11.0300430736        6.0016813678       29.7142299777
  H         9.6755899650        5.5073650617       31.1787453851
  H        10.2006748227        7.1941408749       31.2682531878
  H        12.1119186493        5.4525273692       34.0904246411
  H        10.7754088501        6.3400918761       33.9478256074
  H        10.6703247768        4.5979763713       33.5379885999
  C         9.8496553553        5.7502468341       28.8270126261
  H        11.6167064470        5.0720608031       29.6367610691
  H        11.5649690958        6.9439708896       29.5039950484
  C        10.2990155726        5.8168804000       27.3458405605
  H         9.3241235258        4.8486474159       29.0262800288
  H         9.1368749637        6.6223084192       28.9425602711
  C         9.4842241532        4.9683424457       26.3706297113
  H        11.4130903756        5.5202680800       27.3019375662
  H        10.3232682586        6.8161150891       26.9524576304
  C         8.2584517203        5.7715773355       25.9454760165
  H        10.0637357977        4.7174457683       25.5228644128
  H         9.1343809784        4.0527069076       26.8004096975
  C         7.1892580825        5.0816360863       25.0273360275
  H         7.7654138777        6.2265072456       26.8086866816
  H         8.6120862995        6.6285404097       25.3393865118
  C         6.8724386630        3.6824181628       25.7017885255
  C         7.6435883934        4.3099691279       23.8394918297
  C         5.9745346142        6.0437998815       24.9821354213
  C         7.1834488172        2.6001469199       24.9036625492
  C         6.2645663237        3.3434690638       26.9029264663
  C         7.5815829646        2.9737545947       23.6665552452
  C         8.0941265665        4.9560451849       22.6562975351
  H         6.2600684133        6.8672038729       24.3644463604
  H         5.7292882295        6.2952123714       26.0248589212
  C         4.6528195114        5.3644193469       24.4243412391
  S         6.8752367187        1.1381564638       25.7303283385
  C         6.3393277849        2.0108234305       27.0939345300
  H         5.9186619927        4.0995551941       27.5808615724
  C         7.9380628548        2.3933050644       22.5190234321
  H         8.2306424212        6.0661531798       22.6816465978
  C         8.4177538567        4.4056164439       21.4565244718
  H         4.7461934812        5.4061843069       23.3457176146
  H         4.6418242851        4.2985169030       24.7103047889
  C         3.3628338531        6.0665384917       24.8342806571
  C         6.0813959356        1.2883978480       28.3937349837
  C         8.3219004094        3.0299319298       21.3522923132
  H         8.0095958208        1.2717527622       22.5210488365
  C         8.6871820004        4.7457655622       20.1503680598
  H         2.6036405720        5.7761389834       24.0957820583
  H         3.4998034680        7.0868662604       24.6789492557
  C         2.8530552779        5.9489752718       26.2809556774
  C         6.2541153625       -0.0635223140       28.7015761666
  C         5.5705406846        2.1315635406       29.4925723847
  C         8.6943052463        2.3327518896       20.1016520923
  C         8.9122984553        3.6412902330       19.3414929747
  S         9.0530716064        6.2551918923       19.3407330863
  H         2.0869664982        6.6605253840       26.3480279113
  H         3.4774839089        6.3193763537       27.0124332959
  C         2.1290277592        4.6056904231       26.7400750212
  N         6.6956700710       -0.9909515337       27.7713420378
  C         5.9718677991       -0.6165218858       29.9788296941
  C         5.3176582339        1.6292397448       30.7199625399
  H         5.1462294426        3.1114296506       29.2775651511
  C         7.5287996362        1.4767359577       19.5035323983
  C        10.0464609663        1.6223073678       20.2014389872
  C         9.4171857785        4.0262173393       18.0582162547
  C         9.5167937702        5.3723320325       17.9778078342
  H         1.4939998706        4.1592810027       25.9738813489
  H         2.9577316851        3.8646790462       26.7808973686
  C         1.3399116209        4.8712639975       28.0438619814
  S         6.8310703122       -2.3981367722       28.6271180940
  N         6.2123249831       -1.9430440982       30.0373491886
  C         5.4804086143        0.1634480387       31.0532959833
  H         4.9398150575        2.3393739677       31.4334999390
  H         7.3074496118        0.6601976597       20.1836194280
  H         7.9918406148        0.9850623290       18.6575017420
  C         6.2746588830        2.2825810265       19.1838288240
  H        10.3180693009        1.1127564155       19.2066165578
  H        10.0543859569        0.6949440927       20.9156399311
  C        11.2280327541        2.4828340153       20.7785462483
  H         9.7043307688        3.2955641332       17.3264879975
  C         9.9754520574        6.1509328003       16.7427229569
  H         0.6896701738        4.0362891037       28.1660546042
  H         0.7464775208        5.7705844657       27.9044808399
  C         2.2645450171        5.0517531131       29.2526945587
  C         5.1796794809       -0.4501158852       32.3039583444
  H         6.3975748001        2.8312716788       18.2815148097
  H         6.0994647810        3.0665955830       19.9557652662
  C         5.0282521687        1.3828197416       19.0038092574
  H        11.0347059970        2.8252375635       21.7529266203
  H        11.4430414594        3.3398460258       20.1401208434
  C        12.3929415685        1.5144372074       20.8928834796
  C        10.1374971083        7.5744416955       16.6905275478
  C        10.2507129074        5.4136307654       15.4480367847
  H         2.8165457993        4.1233496261       29.1550776929
  H         2.9013252973        5.9579571676       29.1549438934
  C         1.5488780195        5.0704550162       30.5874777263
  H         5.1615096528       -1.5022787770       32.3710766279
  C         4.8503124161        0.0650263170       33.5260871946
  H         4.7816142476        1.0656476143       20.0268350612
  H         5.2812252369        0.5226850639       18.3547078332
  C         3.7314488322        2.0191782374       18.4188365531
  H        12.1891016689        0.9420082492       21.7337492865
  H        12.3725210553        0.7910023446       20.1071118806
  C        13.7518961075        2.1762187685       20.9559243372
  N         9.8525523537        8.5027832747       17.7266040818
  C        10.5528929413        8.2371565737       15.5085215095
  C        10.6453657427        6.1322903458       14.3085171322
  H        10.2482067332        4.3414327952       15.4628067974
  H         1.1928019049        4.1897274755       30.9843326635
  H         2.2611522918        5.4848104027       31.2674759405
  H         0.7470977309        5.7598776219       30.6038158309
  S         4.6344514412        1.7297372796       34.0589571332
  C         4.7148682678       -0.9326094310       34.6465808361
  H         3.8474280819        3.1236007065       18.7176054206
  H         3.8621228614        1.9969005528       17.3576508754
  C         2.4731460912        1.3368387717       18.9566566722
  H        13.7969601087        2.8686937980       20.1803604645
  H        14.4737430214        1.3593166690       20.7310834062
  C        13.9377212511        2.9093202021       22.2452134223
  S        10.0379691269       10.0182425881       17.1384576750
  N        10.5852430247        9.6586573567       15.6338981903
  C        10.8777540772        7.5681277843       14.3342849596
  H        10.7427415412        5.5853353826       13.3879993849
  C         4.1560951280        1.0558187806       35.6615363038
  N         4.2041885501       -0.2983237644       35.7434088791
  O         5.0041057954       -2.0881201802       34.6390471518
  H         1.7223683605        2.1457538482       19.1322860298
  H         2.6803209087        0.8872264029       19.9341876591
  C         1.9076567857        0.2259538009       17.9796227517
  H        14.5303280358        3.7225110028       22.0045520861
  H        13.0080870100        3.2454897203       22.5307426118
  C        14.4469384453        2.0206327783       23.2948759798
  C        11.0118063791        8.3050225312       13.1670174440
  S         3.6501546736        2.1114821375       37.0244777466
  C         4.1250785114       -0.9835675646       37.0431939287
  H         0.9904882165       -0.1389723573       18.4636046414
  H         1.5432117947        0.7502571826       17.0916460625
  C         2.8750443905       -0.8849684628       17.7597943830
  H        13.9980259864        1.0213545716       23.1828266674
  H        13.8287359614        2.2786858476       24.1251975997
  C        15.9679722504        2.0438508052       23.6141127040
  H        10.5381793326        9.2512463663       13.1561905476
  C        11.5394143478        7.9659994805       11.9521014393
  H         3.2559611942       -0.5773872301       37.5924979522
  H         3.8559829296       -2.0762533486       36.9532698031
  C         5.4188271682       -0.8269828176       37.7614887571
  H         3.4514935988       -1.2110626437       18.5867633735
  H         3.5872129965       -0.6553047595       16.9511055080
  C         2.0843750188       -2.0433228932       17.1360900775
  H        16.1863827270        2.9957757739       24.1043796930
  H        16.1752021554        1.2540268271       24.3384393226
  C        16.9731208428        1.9815721237       22.5422052366
  S        12.3675993672        6.5269162805       11.5288705839
  C        11.4825671615        8.9871884103       10.9149797067
  H         5.4511377373        0.1264561308       38.3437088250
  H         5.6920027103       -1.7416573542       38.3188296031
  H         6.1613825089       -0.8472224792       36.9826483612
  H         2.6753304372       -2.7157320985       16.5794384885
  H         1.3330299340       -1.7664543587       16.3776103491
  H         1.5774311263       -2.5428247802       17.9242251564
  H        17.9961967035        1.9209804575       22.9551463731
  H        16.8768497254        2.8889847366       21.9644359072
  H        16.7600043423        1.1556083057       21.8267910850
  C        12.5487175350        7.2646390200        9.8910767242
  N        12.2213052940        8.5613588760        9.8532216352
  O        11.0969577996       10.1327288571       11.0735985864
  S        13.1413811570        6.4124586476        8.4870998104
  C        12.2696725892        9.3681406736        8.5821401849
  H        12.3916818663       10.4566288755        8.9048584956
  H        13.0650523293        9.0232626721        8.0422938924
  C        11.0763058652        8.9393910389        7.7789819830
  H        11.0254771464        7.8463690535        7.7919211581
  H        10.1677607885        9.2482017838        8.3214962524
  H        10.9840720281        9.4001538425        6.7951702083
  H        -1.0199384344       13.1676989071       17.3688713471
  C        -1.6734558949       14.0172234170       16.9195138656
  H        -0.8837274761       14.6244263947       16.4762303421
  C        -2.4188423922       14.7540047178       17.9584298756
  C        -2.6330734442       13.5277503592       15.8768521972
  C        -3.1815292991       13.8386190204       18.9577723040
  H        -1.7278656223       15.2085768120       18.6888686029
  H        -3.1067514576       15.5813639107       17.5672005425
  H        -3.7241146992       13.6062074462       16.1834715761
  H        -2.5529586437       14.1066092237       14.9958818708
  H        -2.5297856830       12.4852705521       15.5817132877
  C        -2.2578096390       12.9986284696       19.8302037743
  H        -3.8527700344       13.1178244044       18.4798727289
  H        -3.8094410545       14.5429596191       19.5329134365
  C        -2.4851286199       13.2713640094       21.3119818220
  H        -2.6189470184       11.9951498756       19.6247021164
  H        -1.1914924768       13.1576932079       19.6272573752
  C        -1.3752367299       12.7473808551       22.2668350337
  H        -3.3471793702       12.6850835022       21.6684466785
  H        -2.6154931498       14.3757957461       21.4994302638
  C        -0.0847089339       13.6715860175       22.4782055789
  H        -1.8236488828       12.6092003557       23.2197653772
  H        -1.1147170782       11.7108674150       22.0445149753
  C         1.0653113422       12.8994080905       23.2203535646
  H         0.2880695026       14.1113972258       21.5284385111
  H        -0.3073788938       14.4654633169       23.1299569903
  C         1.3905352530       11.5646674666       22.5045793727
  C         0.6612547799       12.1697404156       24.4515197830
  C         2.2467434202       13.8886136587       23.4822219637
  C         1.1790341776       10.4728655501       23.3006179121
  C         1.8993640356       11.1623642266       21.2804930307
  C         0.8203894428       10.8447868856       24.5857684828
  C         0.3103125431       12.8547458581       25.6181549796
  H         2.5616715301       14.2143706620       22.4422966129
  H         1.9531510694       14.7445264467       24.0625891058
  C         3.4511782805       13.0520956049       24.0104743394
  S         1.4272717808        8.9505302922       22.4980574377
  C         1.9995430269        9.8566323548       21.1115476631
  H         2.1389700302       11.9314474001       20.6222753261
  C         0.4747891920       10.2716579242       25.7653647945
  H         0.2395354330       13.9320660318       25.6767248069
  C        -0.0794271291       12.2396478543       26.8069150470
  H         3.6998069016       12.4162322944       23.2331395502
  H         3.1477857463       12.4350935302       24.8957536894
  C         4.6828280740       13.8495800090       24.4131841164
  C         2.3775911885        9.2254122612       19.7831362613
  C        -0.0000354663       10.8788910689       26.9353573478
  H         0.5955920195        9.1840040654       25.6728311308
  C        -0.4777663745       12.6526864196       28.0167370324
  H         5.2706731602       13.4165095761       25.2217150420
  H         4.2713761635       14.8034390848       24.7834160377
  C         5.6340097710       14.0934172407       23.1740302854
  C         2.2994669680        7.8572694028       19.5594221476
  C         2.7255204278       10.0697036477       18.6197234590
  C        -0.3342767179       10.1589863687       28.1832074769
  C        -0.6094044624       11.5143496724       28.8201061478
  S        -0.7056590579       14.0994453670       28.8561183782
  H         6.3556119824       14.7970969296       23.5133777348
  H         5.0607599176       14.5510813930       22.4360099841
  C         6.4908629165       12.8708309162       22.7789530544
  N         1.9914468919        6.9882077268       20.5592245802
  C         2.6846307472        7.3134350215       18.3912014021
  C         2.9580093212        9.5104081493       17.3508843500
  H         2.7312021071       11.1246858365       18.6417664737
  C         0.7474830168        9.3881733511       28.9719008643
  C        -1.6035983564        9.3300745848       28.0056452125
  C        -1.0120122718       11.8471731549       30.1180825655
  C        -1.1675469189       13.2092263800       30.2081107175
  H         6.9955359758       12.7218425568       23.7112438668
  H         5.9036444388       12.0100671700       22.5758184423
  C         7.5150976295       13.0998306295       21.6264753135
  S         2.3363369919        5.5180752678       19.9901143528
  N         2.7828668683        5.9120090478       18.4532598715
  C         2.9509407435        8.0003694258       17.2174024364
  H         3.0225475277       10.2273828030       16.5154497030
  H         1.1354397165        8.7075013793       28.2358573339
  H         0.2996986524        8.8197540000       29.8240332622
  C         1.9183168700       10.1979286306       29.4398956782
  H        -1.4642697984        8.5181693965       27.3135818619
  H        -1.8855802087        8.8318727448       28.9498984131
  C        -2.7263028198       10.1772274403       27.5904547535
  H        -1.1455606631       11.0677506313       30.8452363941
  C        -1.6003325891       14.0052333520       31.3619660158
  H         8.4567494475       12.5269017740       21.7927452377
  H         7.7422149361       14.1751521946       21.6583326641
  C         6.8735232727       12.8372967907       20.2513595315
  C         3.2492314139        7.3567759764       15.9656950250
  H         2.3350945646       10.9096429243       28.7595024134
  H         1.5564235679       10.6657497989       30.2778036110
  C         2.9531557422        9.2599282252       30.0084638391
  H        -2.5045332601       10.8509247978       26.7733826250
  H        -2.9571050755       10.7632921952       28.4842624312
  C        -4.0336193317        9.2884088070       27.3268108664
  C        -1.4960328101       15.4548550157       31.4432617477
  C        -2.0933031606       13.3310857749       32.5596560133
  H         7.5044712967       13.4323744911       19.5661690412
  H         7.1818511296       11.8315727248       19.9144990445
  C         5.3520102194       13.0250029320       19.9253688095
  H         3.1122205527        6.2517733449       15.9958373532
  C         3.5776285306        7.8404954726       14.6842196618
  H         3.0971503979        8.3890958428       29.3283081719
  H         2.6119121458        8.7254574250       30.8770671047
  C         4.3257633548        9.9003807879       30.2661561802
  H        -3.8329365207        8.6455607162       26.5248313444
  H        -4.2020937929        8.6692365515       28.1999942199
  C        -5.2663143344       10.1463673485       26.9966070411
  N        -1.0263550210       16.3802137724       30.4206834058
  C        -1.8911326127       16.1731445241       32.5537148627
  C        -2.4161220291       14.0369912433       33.7364781429
  H        -2.2780012413       12.2824029936       32.5678227558
  H         5.1393859263       12.6611884256       18.9502221826
  H         4.7216287846       12.5776570547       20.6283674603
  H         5.0238611517       14.0967741773       20.0201612485
  S         3.8532393516        9.3826507392       14.2208700207
  C         3.6105001281        6.7705891520       13.5888586993
  H         4.4963160978       10.6403166581       29.4948697798
  H         4.2605564619       10.4656965637       31.1485080248
  C         5.4727690937        8.9022838714       30.2617606459
  H        -5.1694026157       11.0725886082       26.4713870541
  H        -5.4857072377       10.4998170904       28.0107056257
  C        -6.4449590217        9.3735000105       26.4933814799
  S        -0.9495206540       17.8502823722       30.9987048914
  N        -1.4791801073       17.5424928870       32.4791815980
  C        -2.3030378244       15.5346082892       33.7116982392
  H        -2.6995929887       13.4141769074       34.5969830284
  C         4.0379913170        8.7084006965       12.5631840470
  N         3.9624439215        7.3693409848       12.4311762992
  O         3.3097733159        5.6098367900       13.7857115342
  H         6.3581831514        9.3599634109       30.7365857065
  H         5.7394319952        8.5896386180       29.2368545298
  C         5.1812953257        7.6374236268       31.0119209376
  H        -6.1711991615        8.3658316379       26.0797301802
  H        -7.0368469303        9.1398909685       27.4500678535
  C        -7.2478965273       10.1854777221       25.4954087207
  C        -2.6122802048       16.2557804354       34.8589163999
  S         4.2436191800        9.7269438035       11.1258758329
  C         3.7645294899        6.6831175521       11.1409106799
  H         4.8085475712        7.7382273559       32.0128352727
  H         4.5257593960        6.9948003293       30.3988877514
  C         6.5090658980        6.7981302587       31.0768359162
  H        -6.8812987451       10.2374399442       24.4349746900
  H        -7.1959891613       11.2575908747       25.8277726613
  C        -8.6945327843        9.7100779193       25.4624182386
  H        -2.2649333120       17.3069928132       34.7655176607
  C        -2.9980426260       15.8656643599       36.1267293429
  H         4.3152728739        7.2001022213       10.3670771822
  H         4.1740258157        5.6749818246       11.1598883771
  C         2.2632915612        6.6061392428       10.8064918557
  H         7.0830860818        7.1766507946       31.9344767213
  H         7.1088414676        6.9173299865       30.1716013114
  C         6.1794603557        5.3390747916       31.4013119425
  H        -9.0573305970       10.0895692760       24.4520876543
  H        -8.6424775298        8.6257535241       25.4405894490
  C        -9.5108160697       10.2567277024       26.6649213171
  S        -3.4747674430       14.2799732065       36.7550354292
  C        -3.0685035657       16.8992951910       37.1879860262
  H         2.0322962842        5.8993131005       10.0059466674
  H         1.7313080583        6.1777298570       11.7339252600
  H         1.7570901232        7.4608143329       10.4804461050
  H         5.1252062547        5.0868239085       31.2697398650
  H         6.5546160824        4.9726873352       32.4264008476
  H         6.8162328389        4.8460103314       30.7318092309
  H        -9.3733470750        9.6223767145       27.5035196287
  H       -10.6220987537       10.2258218083       26.5592639053
  H        -9.3006506122       11.1843410779       26.9058111193
  C        -3.9406065511       15.1507715521       38.2432952699
  N        -3.7127600492       16.4785077341       38.2692405176
  O        -2.7970359690       18.0921225107       36.9471304082
  S        -4.7800919132       14.3913399428       39.5618681489
  C        -3.8940287161       17.4566112030       39.3395923445
  H        -4.0521954438       18.4430922321       38.9106164346
  H        -4.8763131996       17.2692596761       39.8072635482
  C        -2.7132582628       17.3920244907       40.3368441311
  H        -1.7474977429       17.3902692693       39.9373486930
  H        -2.7723566833       18.1887309418       41.0346997312
  H        -2.8278847579       16.4828639859       40.8349046608
