352
 i =    17700, time =    17700.000, E =        24.9699398174
  H        11.4091875518        8.1615083572       31.7332861462
  C        11.3425433405        7.1371074479       32.0425367281
  H        12.4129998795        6.8186703615       32.0713297093
  C        10.4330019002        6.3400169156       31.1067447568
  C        10.8045538398        6.9418935971       33.4879189176
  C        10.9961996299        5.8806571892       29.7508450954
  H        10.1748742454        5.4064745311       31.6373406189
  H         9.4724521188        6.8722665329       31.0395440419
  H         9.7308828516        7.0960920470       33.5069779061
  H        11.0195840684        5.8858832401       33.7776174438
  H        11.3532844363        7.5918493077       34.1574123535
  C        10.2954860851        6.5671420576       28.6474804408
  H        10.7812744571        4.8203546131       29.6800108727
  H        12.1134244510        5.9956315953       29.6691196986
  C        10.8000616155        6.1417147354       27.1886697994
  H         9.2603713981        6.2921726000       28.7467798931
  H        10.3102868976        7.7050313829       28.7958329581
  C         9.6680245152        5.3437402004       26.4525898077
  H        11.7832214041        5.7325748040       27.2298293148
  H        10.8320631039        7.1030429036       26.6446439843
  C         8.4674535138        6.2575420100       26.0966210936
  H        10.1017694280        4.9361165961       25.5784139549
  H         9.4312138657        4.4889812913       27.1367895547
  C         7.3444136323        5.4454832101       25.4250659999
  H         8.2065076285        6.6745875620       27.0993444160
  H         8.7886544140        7.0758584558       25.4443094863
  C         7.0866431636        4.1153517797       26.1814906573
  C         7.8951232868        4.7178579512       24.2644425708
  C         6.0739956641        6.2581788723       25.1947361227
  C         7.3871153269        3.0537105552       25.4144305248
  C         6.6281793351        3.8201808152       27.4222831400
  C         7.9448351733        3.3997003227       24.2079161974
  C         8.3732929596        5.3251038987       23.1234868153
  H         6.2790012100        7.0423814492       24.4385022127
  H         5.9969685630        6.7400511653       26.1198198117
  C         4.7771439607        5.5360240358       24.8746576766
  S         7.1827494223        1.5636665381       26.2573858860
  C         6.5136549610        2.4599844113       27.5644802612
  H         6.4499920618        4.7129145709       28.0022428439
  C         8.3138249071        2.7183537262       23.1015601722
  H         8.2884761250        6.3574139508       23.0521833389
  C         8.7433606773        4.7315149949       21.9570840250
  H         4.9108291373        5.3152878008       23.8127577534
  H         4.7290484793        4.5895518916       25.4528889383
  C         3.5853161842        6.4600937666       24.8468768272
  C         6.0139005179        1.7412079479       28.7925837600
  C         8.6814641659        3.4064338319       21.8987054749
  H         8.2145854921        1.6582353725       23.1952630620
  C         9.1718408645        5.1106794744       20.6726954434
  H         2.8530742982        5.9594298022       24.1720354155
  H         3.8010424806        7.4547099831       24.3765484109
  C         3.0220159526        6.6285831580       26.2970427332
  C         5.9720460614        0.3224154989       29.0356775712
  C         5.4797046874        2.6810065317       29.8058235555
  C         8.9762426405        2.6496788375       20.6747632535
  C         9.2883801597        3.9484783163       19.8953249349
  S         9.4865510883        6.6004194159       19.9109568650
  H         2.4146697679        7.6017404276       26.4423967450
  H         3.8989148154        6.7360732951       26.9615311311
  C         2.2185516786        5.3777945123       26.7818335170
  N         6.3300312534       -0.6791982303       28.1275642751
  C         5.5992349510       -0.1516592888       30.2491036839
  C         5.1071353103        2.1180068790       31.0439238800
  H         5.5256833542        3.7556050244       29.6730415816
  C         7.7725686771        1.9158912778       20.0621410374
  C        10.2517408962        1.7764139438       20.5627498315
  C         9.7408657314        4.3454036328       18.6217137955
  C         9.8266063540        5.7031305298       18.5180744176
  H         1.3543453822        5.2562476206       26.0720504167
  H         2.8247769030        4.4379093684       26.9579305515
  C         1.6513898524        5.6756245742       28.1720860743
  S         6.3729662980       -2.1052139008       28.9600840407
  N         5.7307593775       -1.5792920687       30.3995328652
  C         5.1697782254        0.6813754883       31.3162641208
  H         4.6629670254        2.7320535623       31.7241157355
  H         7.7359042549        0.8560036439       20.3435899508
  H         8.0004426862        1.8008499049       18.9877246829
  C         6.4180534776        2.6027892783       20.1763231872
  H        10.2985997041        1.2131315378       19.6818396089
  H        10.2022334303        0.9569778624       21.2239164819
  C        11.5401449682        2.5600409944       20.7600999821
  H         9.8414793300        3.5623497316       17.8583774567
  C        10.0406529810        6.4693285090       17.2619857030
  H         1.1364296786        4.8477486099       28.5397390954
  H         0.8424681759        6.4084041685       27.9663447327
  C         2.6922252236        6.0737311566       29.2111377677
  C         4.9362229498        0.0648001914       32.5892627567
  H         6.3737066764        3.5885833772       19.6600659073
  H         6.1374448014        2.6368273452       21.2327513976
  C         5.4457500153        1.6052597138       19.5609947048
  H        11.5319888818        3.1300685164       21.6711905157
  H        11.7554489585        3.1944886768       19.9700657496
  C        12.8059408089        1.6822169705       20.7742050115
  C        10.0186031550        7.8929209445       17.1090964519
  C        10.2694615682        5.6862925605       16.0503244937
  H         3.5420121635        5.3484064500       28.9826178058
  H         3.1065988101        7.1212415982       29.2472130735
  C         2.1797673598        6.0468670729       30.6481259701
  H         4.9091902842       -1.0258479790       32.5643271635
  C         4.7364282736        0.5144140084       33.8687508970
  H         5.1665827809        0.9311515538       20.3205381810
  H         5.9020743625        0.9489384191       18.8294493547
  C         4.1865374559        2.2145440523       18.9629447045
  H        12.7742186542        1.1617573534       21.6835080285
  H        12.9313963752        1.0074309371       19.9021563728
  C        14.1100321906        2.4374323320       20.7601609888
  N         9.7810755346        8.8145453400       18.1368274746
  C        10.2721797289        8.5321288883       15.8900138431
  C        10.6295155226        6.3016044991       14.8031133768
  H        10.2683180138        4.6693578783       16.1271974680
  H         1.1156492810        6.3277562660       30.7182027452
  H         2.1551109484        5.0944032691       31.1026666698
  H         2.8718327635        6.6367278975       31.3105728290
  S         4.4539197508        2.1582421470       34.3486079487
  C         4.5815960277       -0.5208663385       34.9566757985
  H         3.9411479452        3.1248579177       19.5818577257
  H         4.5596025325        2.6029038600       17.9786998966
  C         3.0396528819        1.2279055334       18.6512579304
  H        14.0450260450        3.4064017079       20.1620145949
  H        14.9098169450        1.8197965635       20.3387119923
  C        14.5475894838        2.8849449754       22.1139719140
  S         9.7720898092       10.3257264101       17.4864613394
  N        10.1267709462        9.8865835215       15.9375286015
  C        10.6961270831        7.7740948039       14.7369992460
  H        10.6582536783        5.6132487458       13.9827965990
  C         3.9963203411        1.4256279168       35.9451771017
  N         4.1488750466        0.0967749487       36.0673825879
  O         5.0793509898       -1.6579256592       34.8752505561
  H         2.0850300705        1.7045878262       18.4047376546
  H         2.8262415061        0.5583801547       19.5319966781
  C         3.2404146291        0.2238785522       17.4560243177
  H        15.1266396628        3.7462875776       21.9121060595
  H        13.7178851743        3.1309891072       22.7924878174
  C        15.3022261141        1.8587492220       22.9404618424
  C        10.9962826318        8.4323843030       13.5500659486
  S         3.7269428090        2.5129670909       37.3400479740
  C         4.0866978752       -0.6034125189       37.3246081629
  H         2.8419352409        0.6854517959       16.5548942510
  H         4.3003159104        0.1505353314       17.3183717164
  C         2.7699714805       -1.1571325494       17.7398325780
  H        15.7720922491        1.2029284562       22.2289032091
  H        14.6003275783        1.3865216172       23.5647294475
  C        16.4824120648        2.3803279442       23.7952544039
  H        10.6867388440        9.4872671730       13.4587866399
  C        11.6197947390        8.0424814266       12.3530199997
  H         3.4421239565       -0.1177702401       38.0518423401
  H         3.7231377487       -1.6027602677       37.1497869132
  C         5.4437799651       -0.6527682584       38.0426473855
  H         1.6666412437       -1.0373870511       17.9485573240
  H         3.3268904365       -1.5276635413       18.6267926782
  C         2.9849827961       -2.1638792595       16.6076845447
  H        16.1642316848        3.4149727027       24.0302400413
  H        16.6507539637        1.7882448206       24.7068933122
  C        17.7072745259        2.5434035205       22.8809565712
  S        11.9958904638        6.4466862898       11.9017288965
  C        11.7511008960        9.0426160833       11.3287499197
  H         5.7508590896       -1.6582544922       38.2715620266
  H         6.3109600039       -0.0822427139       37.6996763738
  H         5.1206761700       -0.0754515346       38.9903473408
  H         2.8018329267       -3.1606959426       16.9818504357
  H         4.0060244451       -2.2367798940       16.1570926694
  H         2.4106625606       -2.0972787330       15.6745728671
  H        18.4957458118        2.8657187984       23.4716831198
  H        17.6545255375        3.3341715115       22.1139651786
  H        17.9674951969        1.5590683347       22.4467507685
  C        12.3265686258        7.0974700070       10.3545998107
  N        12.2471884454        8.4104647075       10.2549947737
  O        11.5338458206       10.2236100680       11.5159656330
  S        12.8236684465        6.1988725102        8.9301190504
  C        12.4051576875        9.1625185523        9.0048596756
  H        12.7425932001       10.1317777947        9.1682510525
  H        13.2161282483        8.7891048564        8.4157729862
  C        11.1348611401        9.2997725028        8.1387550491
  H        10.3875069447        9.8101512994        8.6730136850
  H        11.3482919605        9.9552532575        7.2508126870
  H        10.6084439294        8.3754024646        7.8006941511
  H        -2.7402922174       14.7315412843       15.7480721594
  C        -3.0613996862       13.7221381541       15.9712076720
  H        -4.0665586550       13.6504624393       16.2827550628
  C        -2.0324539283       13.2803745929       16.9977128740
  C        -2.9485546218       12.8786896188       14.6852365843
  C        -1.9758821770       13.8904542789       18.3281970073
  H        -2.2154580638       12.2175768038       17.1745640037
  H        -1.0662885795       13.3043299151       16.4024891908
  H        -3.3402621955       13.3910127700       13.8539711017
  H        -1.9687644362       12.4575260952       14.3447371857
  H        -3.5761861932       11.9594563892       14.7661639860
  C        -1.5819173953       12.7658547766       19.3801983049
  H        -3.0059259353       14.2648070531       18.6357944639
  H        -1.3007719803       14.6815122360       18.2695328801
  C        -2.2322147172       13.1352850030       20.7710599746
  H        -2.0403232291       11.7958290206       19.1045555978
  H        -0.5143846584       12.6430659905       19.5856402419
  C        -1.5116619908       12.7271462990       22.1183558170
  H        -3.2751796486       12.8193143947       20.9835016647
  H        -2.3793598928       14.1795715632       20.6792322717
  C        -0.2639614846       13.6954370301       22.4706470091
  H        -2.3116192119       12.8820188188       22.8450351221
  H        -1.2828644546       11.6265591606       22.1674517616
  C         0.9327919181       13.0857410481       23.2339471090
  H         0.0498214802       14.0100430217       21.5057384148
  H        -0.7597400903       14.6064135436       22.9109740654
  C         1.4793554993       11.7437903304       22.6373217238
  C         0.6048501361       12.2127648805       24.3935151982
  C         2.1087955716       14.0735059403       23.7067391134
  C         1.2221743999       10.5766182399       23.3130367982
  C         2.0593977450       11.4313238200       21.4048387575
  C         0.7258048961       10.8819245075       24.5254133861
  C         0.0964720859       12.8533082501       25.5641516761
  H         2.1985900867       14.8454771015       22.8784254685
  H         1.9950299723       14.5633221008       24.6615908929
  C         3.4757005215       13.3365188692       23.9405966933
  S         1.5657206935        9.0788850441       22.5214993666
  C         2.1439169474       10.0817342181       21.1652627424
  H         2.1541368223       12.2431440648       20.6315085471
  C         0.3268407871       10.2517772595       25.6481697064
  H         0.0833509184       13.9475832109       25.5476829020
  C        -0.2518829148       12.2282244978       26.6769350035
  H         3.7302674618       12.7500617669       23.0333344725
  H         3.3663233822       12.5805535585       24.7446291086
  C         4.6806922080       14.2443550450       24.2260996011
  C         2.5926784399        9.4303564769       19.9249217789
  C        -0.1693063427       10.9133312364       26.8028886110
  H         0.4319448596        9.1455046259       25.6550736530
  C        -0.6621884413       12.5854507401       27.9444382325
  H         5.1676762388       13.7469837491       25.0306387377
  H         4.4569886723       15.1570997924       24.6384077173
  C         5.4784225166       14.4180871863       22.8866557485
  C         2.4623094480        8.0192300720       19.6248236254
  C         3.0611846179       10.2414387846       18.7666390213
  C        -0.4200453433       10.1766707854       28.0735553134
  C        -0.6815718457       11.4976025913       28.7574917015
  S        -0.8471435203       14.0580734902       28.6969790273
  H         5.9788603916       15.3540954097       22.8520512367
  H         4.6717800718       14.6120484909       22.1393686030
  C         6.2890758869       13.2039939907       22.4935632929
  N         2.0401513014        7.0563260147       20.5447172843
  C         2.8239295424        7.4887038874       18.3753194812
  C         3.3038201274        9.7128218736       17.4656066720
  H         3.1315114961       11.2871855480       18.9129774478
  C         0.8154658319        9.5261432924       28.7722244557
  C        -1.5905774171        9.2565633186       27.9295524232
  C        -0.9272806442       11.9192680944       30.0758807236
  C        -1.0234955880       13.2617363778       30.2529107790
  H         7.1496654430       13.0296205904       23.1975859878
  H         5.7840824744       12.2682637229       22.5313553256
  C         6.9364411291       13.4573029682       21.1700391343
  S         2.1088999083        5.6088799066       19.7985270606
  N         2.6740766255        6.0886631554       18.3694747615
  C         3.1632840665        8.2799171772       17.1862004315
  H         3.6459164162       10.3514682868       16.6877424423
  H         1.1513183655        8.8613627190       28.0395536555
  H         0.4602389958        9.0414801383       29.6515140986
  C         1.9574217659       10.4671525105       29.2165824416
  H        -1.2842450397        8.5865883920       27.1409806607
  H        -1.7718244792        8.7973378737       28.8641909351
  C        -2.8257816473       10.0760540543       27.4883526014
  H        -1.0990182347       11.1717020161       30.7834184405
  C        -1.2609676998       14.0502194458       31.5703251333
  H         7.6037850413       12.6067745883       20.8826274502
  H         7.5299136798       14.3465016503       21.1051807497
  C         5.9068874970       13.5018934330       20.0346202848
  C         3.4407155411        7.6742148921       15.8798187255
  H         2.1321697428       11.0644628028       28.2938129092
  H         1.6889678555       11.1292702500       30.0302685362
  C         3.1231799652        9.5818596649       29.6585086279
  H        -2.6463328753       10.7467029195       26.6404945354
  H        -3.0514249785       10.7024083921       28.3846430297
  C        -4.1567739817        9.3059981497       27.2541642663
  C        -1.4773589044       15.5031623122       31.6766038698
  C        -1.2683652362       13.3514025887       32.8792644532
  H         5.2067650981       12.6752428839       19.9728245837
  H         5.2187887355       14.3384475866       20.0967265654
  C         6.5385775590       13.6790539047       18.6986500703
  H         3.1892612944        6.6950616545       15.9299779294
  C         3.7212600867        8.1252578351       14.6295717339
  H         3.6071464134        9.1728384365       28.7135424128
  H         2.7185388426        8.7529415414       30.3531329579
  C         4.1333082940       10.5797644524       30.3630134754
  H        -3.9249951875        8.5938986550       26.4012188945
  H        -4.4503298867        8.8340946793       28.2224952138
  C        -5.2467076095       10.2853265965       26.8224930351
  N        -1.3929725986       16.3618141270       30.5738015881
  C        -1.8860147512       16.0961296124       32.8889596742
  C        -1.7737844471       13.9376555036       34.0321581253
  H        -1.1177874387       12.3178911802       32.8890433490
  H         7.1950681090       12.7658573107       18.5463992939
  H         5.7684763897       13.6389461105       17.9817038089
  H         7.1209473208       14.5863653708       18.4678466227
  S         3.9220447650        9.7218577681       14.1435342788
  C         3.8675461764        7.0758117350       13.5874237852
  H         3.8767936590       11.6103315587       30.1535415040
  H         4.0453272561       10.5692094563       31.4686175272
  C         5.6106063356       10.2516077993       30.0088293434
  H        -5.1109455052       10.7802491552       25.8972894554
  H        -5.3247489047       11.1606267860       27.4776843917
  C        -6.6016911133        9.5697216460       26.8804699554
  S        -1.5696677382       17.8935678337       31.2051354081
  N        -1.9847309574       17.5051545847       32.7366164641
  C        -2.0765603263       15.4334648555       34.0653164493
  H        -1.7791678201       13.3186161583       34.8220854080
  C         4.1883059276        9.0213476710       12.5246803083
  N         4.1662435207        7.6612977992       12.4677955029
  O         3.7346151112        5.8540873196       13.7598033771
  H         6.3112558732       11.0448050789       30.3520072974
  H         5.6538993386       10.2477784793       28.9655666407
  C         5.9466833657        8.8570200225       30.5641471343
  H        -6.7566828165        8.7854965388       26.1274260766
  H        -6.7095930366        8.9424800645       27.7640595324
  C        -7.7850732095       10.5374218935       26.9007634332
  C        -2.4071488656       16.1169591726       35.2300094081
  S         4.4191751163        9.8873699222       10.9800122479
  C         4.1827930580        7.0120890472       11.1736071535
  H         6.5910529301        9.1200253272       31.4074627802
  H         5.0476537321        8.3615939524       30.9383041962
  C         6.7722102053        7.9438280967       29.7031506323
  H        -7.4397624580       11.4341648808       26.3790640521
  H        -7.8701425353       10.9302407802       27.8804252394
  C        -9.0610038419        9.9054902397       26.3758784478
  H        -2.1433970423       17.1699210227       35.0655999434
  C        -2.8901106227       15.6563958636       36.4302533158
  H         4.9363814681        7.3571792832       10.5123416248
  H         4.4461219366        5.9859322678       11.3407228945
  C         2.8382319576        7.1000000191       10.5554317545
  H         7.8398868702        8.0163651101       29.7755080074
  H         6.4201912395        7.9463856548       28.6589239988
  C         6.4506920411        6.5541291894       30.1729729204
  H        -9.2338404478        8.9762262333       26.8755758960
  H       -10.0100266421       10.4618897040       26.6080135596
  C        -9.0622023858        9.7521655134       24.8757342616
  S        -3.3482906657       14.0968839952       36.7854280249
  C        -3.0065782537       16.6705785633       37.4805858681
  H         2.5904698296        6.2763728746        9.8976958616
  H         2.1710754184        6.8811385119       11.4379956174
  H         2.5736682067        8.0274456497       10.0367046123
  H         7.3305129156        5.8855715838       30.0161089916
  H         5.6290213526        6.1103671747       29.7592492865
  H         6.2632470957        6.4415951055       31.2606398165
  H        -8.5734428581        8.8310751731       24.7073802293
  H        -8.4514121018       10.5810414480       24.4066187329
  H       -10.0329382578        9.6216732602       24.3659451862
  C        -3.8482849823       14.8488859443       38.3726141283
  N        -3.6604664112       16.2016393828       38.4846052139
  O        -2.7174887973       17.8557561689       37.3868509639
  S        -4.6118391814       13.8888782857       39.6859129846
  C        -3.9015967563       16.9723342384       39.6996966896
  H        -4.1700865842       18.0104709840       39.4339938133
  H        -4.8263843279       16.6577874860       40.2210988795
  C        -2.6891108369       17.0212657330       40.6149354515
  H        -2.6682849645       17.9807568461       41.1873521616
  H        -2.8285466590       16.2267382302       41.4346823069
  H        -1.7879333245       17.0555407291       39.9881078551
