352
 i =    39600, time =    39600.000, E =        24.9163203454
  H        10.0573209345        7.1241600487       32.5808016409
  C        10.9805525761        6.5325621682       32.3431064770
  H        11.8426814416        7.1663886532       32.1983148338
  C        10.5833443006        5.6905441172       31.1263935748
  C        11.4771905365        5.7597699386       33.5826861737
  C        11.0772236703        6.1587468561       29.7450587687
  H        10.8149722072        4.6785156052       31.3757818806
  H         9.5292850634        5.7123687096       31.0505890380
  H        12.0390894636        4.8546135195       33.4048873794
  H        12.1390825657        6.4911059573       34.0262009393
  H        10.6829025279        5.6692105675       34.3325943892
  C        10.3120347400        5.2195312073       28.7503663357
  H        12.0643618576        5.7811775087       29.5976773176
  H        11.0239600667        7.1997682967       29.5048419547
  C        10.9575461900        5.2489358414       27.3349404201
  H        10.1866509047        4.2334422901       29.1673527082
  H         9.2494062906        5.4238871636       28.7875172548
  C         9.9615321282        4.7929035412       26.1543610324
  H        11.8356557479        4.5511766009       27.3841064174
  H        11.3198148652        6.2643929387       27.2215774834
  C         8.7401911664        5.7293205604       25.9349667738
  H        10.4160603302        4.6988507111       25.1740499826
  H         9.7401875938        3.7544005559       26.3535379969
  C         7.4806315502        5.0786648786       25.2460369662
  H         8.2578235502        6.0316548038       26.7959808336
  H         8.9139453338        6.6177171308       25.3523812676
  C         7.1590442922        3.7393382326       25.8616294407
  C         7.9296586540        4.3362300448       23.9411302420
  C         6.2209548499        5.9302335174       25.2014964451
  C         7.5249700253        2.6027213433       25.0889581193
  C         6.7566992994        3.2935710944       27.1456412391
  C         7.9520387943        2.9947189072       23.8432670655
  C         8.2513238367        5.0293838256       22.7963601810
  H         6.3793525441        6.7974551281       24.5455420260
  H         5.9535640113        6.3826883667       26.1197736840
  C         5.0054527376        5.1017246643       24.8115742963
  S         7.1230284590        1.0786489706       25.9546864759
  C         6.6165598145        1.9151572930       27.3273215215
  H         6.4005536124        4.0105155756       27.8342563117
  C         8.3551681354        2.3648116122       22.7066095985
  H         8.1351540360        6.1513951806       22.8567640579
  C         8.5968994870        4.3771861291       21.6329412255
  H         5.1915876246        4.8433520776       23.7922031167
  H         4.8537041208        4.2112034052       25.3873549644
  C         3.7088199252        5.9891758836       24.7604834154
  C         6.1253133524        1.3063645068       28.6208276172
  C         8.7021726304        3.0014936537       21.5766684541
  H         8.4437011311        1.3184164353       22.7819812031
  C         9.0155338013        4.8019096792       20.3840171711
  H         2.9239088243        5.6205605007       24.1445550703
  H         3.9150994454        6.9782814116       24.4062346144
  C         3.0478330039        6.2872636336       26.1123895625
  C         6.2062682829       -0.1105013068       28.8645384343
  C         5.7067202264        2.1627718644       29.7385308453
  C         9.0265434674        2.3496389683       20.2431610290
  C         9.2474067226        3.7098737915       19.5412357582
  S         9.4470300113        6.2541057799       19.7197523590
  H         2.2739236469        7.0386824773       25.9737651296
  H         3.7118798344        6.7718776047       26.8541461523
  C         2.6373662173        4.9779314770       26.7474813184
  N         6.6081623508       -1.1078021009       27.9443885916
  C         5.9873499107       -0.6013267128       30.1585690902
  C         5.4375403843        1.6218409206       30.9939937177
  H         5.6473784746        3.1767256638       29.6676674364
  C         7.8029163571        1.5675903195       19.7015944110
  C        10.3542989739        1.4575743770       20.3170663538
  C         9.7249418388        4.0951015477       18.3354690268
  C         9.8659741171        5.4431328286       18.2666471444
  H         2.2097821801        4.2955797112       26.0446075542
  H         3.5148290683        4.4486381035       27.0649906697
  C         1.7367679654        4.9229291489       27.9796632912
  S         6.5181369716       -2.5446660239       28.7247933601
  N         6.1989698970       -2.0007341072       30.2615592777
  C         5.5787770155        0.1722569579       31.2622029787
  H         5.2209367075        2.3104941774       31.8179180694
  H         7.4907583258        0.9103571956       20.5005954326
  H         8.0855492228        0.9586522503       18.8949717310
  C         6.5619418760        2.4384049850       19.3040608964
  H        10.4126388398        0.8426213105       19.4178849843
  H        10.3508285973        0.8325252762       21.2094485287
  C        11.6149024233        2.2716599167       20.5001100851
  H        10.0156693922        3.3300726398       17.6698782776
  C        10.1905718623        6.2778270309       17.0828602464
  H         1.3898157620        3.8996605016       28.1391661796
  H         0.8176334705        5.5823442037       27.7627144923
  C         2.4111054582        5.3949029246       29.2209487673
  C         5.4177033894       -0.4317046027       32.5316055992
  H         6.7206725176        3.1599693870       18.4712923600
  H         6.3393002518        3.1310260534       20.1655429952
  C         5.3013953330        1.5949873626       18.8934633108
  H        11.5061835172        2.9964507595       21.2841215394
  H        11.9215196985        2.8760719955       19.5866338596
  C        12.8501986165        1.3543184121       20.6355966593
  C        10.1463819600        7.6985321934       16.9345364557
  C        10.2831340532        5.6094454362       15.7432226046
  H         3.3124929839        4.8459131957       29.3045564861
  H         2.8221360038        6.4200207310       29.0567848146
  C         1.6259952556        5.3234873538       30.5374377081
  H         5.3482209780       -1.5113916298       32.5764544962
  C         5.0442615825        0.0984764580       33.7540572800
  H         4.9533034742        1.0643690196       19.7799085102
  H         5.5739662440        0.9241949918       18.1259329898
  C         4.2255099976        2.4489916111       18.3022595491
  H        12.8887036982        0.8013155464       21.5781878311
  H        12.9327850229        0.6372681438       19.8180537720
  C        14.0753902108        2.2176174757       20.6131522976
  N         9.9566561882        8.5736035324       18.0184259140
  C        10.5034631142        8.3632804753       15.7846157479
  C        10.4072007279        6.2798033575       14.5011648366
  H        10.2292681392        4.6177658404       15.7708695924
  H         1.8212701410        6.2421694697       31.0716109872
  H         0.5652334482        5.0464583582       30.4359347193
  H         2.1150805972        4.4941079501       31.0504005399
  S         4.5166262608        1.6596454530       34.1430790746
  C         4.9463418202       -0.9023914822       34.8461287945
  H         4.4646367418        3.3951776585       18.6900298319
  H         4.1933140927        2.4413451972       17.2061679838
  C         2.8375600049        2.0068502217       18.8060129228
  H        14.1251252516        2.9022268233       19.7485196717
  H        14.8703956140        1.4589551971       20.5391786350
  C        14.4095588875        2.9947836869       21.9250597378
  S        10.0817516225       10.0604495663       17.5305763994
  N        10.5169570517        9.7243069627       16.0176458456
  C        10.6271102473        7.7595295310       14.5326070298
  H        10.5254504696        5.7074054581       13.6115873246
  C         4.3204967842        1.0964246455       35.8397116715
  N         4.4964323748       -0.2440246254       35.9461069956
  O         5.1765788549       -2.0957400723       34.7322071514
  H         2.0399570944        2.5462760965       18.3097832821
  H         2.7130968400        2.4426737536       19.8017348389
  C         2.5647585952        0.4688493769       18.9067877230
  H        15.0086586709        3.9340023493       21.8943677129
  H        13.4696760645        3.4667377674       22.2484264113
  C        14.9521234987        2.2056026211       23.0907090119
  C        10.9686826235        8.5756411911       13.3584643187
  S         3.6156189519        2.0788496044       37.1421397458
  C         4.2713676718       -0.8655504515       37.2395772469
  H         3.2204546762       -0.0142757284       19.6634720264
  H         1.5735679546        0.1864627256       19.1188048209
  C         2.9394191549       -0.2620290343       17.5615377353
  H        14.8010608127        1.1270429445       22.8527856880
  H        14.3608016014        2.3981107805       23.9951749342
  C        16.3916322468        2.5922199023       23.3620919133
  H        10.7549423039        9.6404026531       13.4047074392
  C        11.5555336470        8.1805178952       12.1244974187
  H         3.5523444102       -0.3858270086       37.8578583294
  H         3.7910371890       -1.7788728822       37.0452076963
  C         5.6023921168       -1.2669074691       37.9350097856
  H         3.9283602772       -0.4138127973       17.3977282319
  H         2.7366766991        0.2955966948       16.6900467366
  C         2.2690225575       -1.6527061674       17.3588136934
  H        16.4216064042        3.6998982559       23.6833567634
  H        16.8141254326        1.9600840853       24.1826986102
  C        17.2520953427        2.3356745554       22.1421789614
  S        12.1060566583        6.6312472019       11.7037375457
  C        11.6490323606        9.1568027393       11.0347670381
  H         5.6132240491       -2.2717523386       38.3909518425
  H         6.3941270455       -1.4682011653       37.2473789751
  H         6.0519690181       -0.6372602573       38.6977488893
  H         2.7725220287       -2.3205154252       17.9894529682
  H         2.3911298056       -1.9815994963       16.3284796436
  H         1.1975482902       -1.5357643624       17.6183069528
  H        18.2918381973        2.4062990345       22.6031886036
  H        17.1696449759        3.1604867339       21.4226872588
  H        17.1579979996        1.3174063947       21.6716933003
  C        12.5647238898        7.2948091633       10.1261743334
  N        12.2394772773        8.5794301481        9.9794297980
  O        11.2491545304       10.2986359212       11.1022527841
  S        13.4562995797        6.5422378327        8.8535252909
  C        12.4347757880        9.3020476985        8.7345719793
  H        12.4007716093       10.3826747912        8.8573035043
  H        13.4160771253        9.2476785960        8.3146288604
  C        11.3889875125        8.9556390000        7.7335827160
  H        11.4516071619        7.8414327925        7.5264721781
  H        10.4499871470        9.2392788179        8.2695397669
  H        11.4592022962        9.5721875724        6.8659105993
  H        -3.3506763462       14.7020314911       17.0486663479
  C        -2.7589639119       13.8074951521       16.9299092755
  H        -3.3765865775       13.0080563844       17.3302581399
  C        -1.4682377706       13.9377226797       17.7014656946
  C        -2.6813249138       13.5061517185       15.4106962099
  C        -1.6215110147       14.2905650086       19.1393118085
  H        -0.6926344120       13.0418494951       17.6848237104
  H        -0.9644207534       14.7455504581       17.1595899312
  H        -3.5175684440       13.7971398553       14.7986474982
  H        -1.7742175207       13.9811565225       15.1094189876
  H        -2.6704312883       12.3973262205       15.3190367435
  C        -2.2899070547       13.0871742850       19.9108066644
  H        -2.2668251792       15.1795138498       19.2031706334
  H        -0.7025022302       14.7577225832       19.5756201801
  C        -2.2725846717       13.3310352502       21.4197041460
  H        -3.3022535269       12.9670858497       19.5096183483
  H        -1.8306073068       12.1116665506       19.5736963990
  C        -1.2251484073       12.6920704227       22.2488562351
  H        -3.2456090219       12.9140685140       21.8093457127
  H        -2.3002293892       14.3892907371       21.5585341822
  C        -0.0419158303       13.5832175232       22.3802989284
  H        -1.7294168282       12.4881965598       23.2380551131
  H        -0.8918701097       11.7067581070       21.9157592655
  C         1.1105889259       12.9304323448       23.1438747945
  H         0.2660517324       13.9487302740       21.3770284884
  H        -0.3075192945       14.4645776547       23.0165354691
  C         1.5071172817       11.6121906467       22.4876853387
  C         0.7093736145       12.2066358993       24.3860239347
  C         2.2546991327       13.8403119506       23.4227757134
  C         1.2747961006       10.5304392118       23.2937664281
  C         1.7938573186       11.2565438239       21.1699111544
  C         0.8158320197       10.8833365875       24.5681184891
  C         0.2292965200       12.9476136420       25.5035328171
  H         2.4419623156       14.3312762403       22.4675992593
  H         2.0623505514       14.5717977327       24.1843160686
  C         3.5230271263       13.1079183704       23.8916155976
  S         1.7473977807        9.0811203478       22.5281609372
  C         2.0462650182        9.8997272526       21.0190684313
  H         2.0072269313       12.0532275056       20.4770086175
  C         0.4785086270       10.3286846939       25.7838762105
  H         0.0320231558       14.0028352867       25.4089742240
  C         0.0185067821       12.3698891442       26.7067831317
  H         3.8352123950       12.3888839645       23.1561989887
  H         3.3973650856       12.5746715873       24.8629476791
  C         4.7437611875       13.9838437358       24.1979952693
  C         2.5096454652        9.1628337999       19.7650337991
  C         0.0565974205       11.0276879006       26.8747177041
  H         0.4286889015        9.2851857121       25.8566628898
  C        -0.4427337574       12.8064392753       27.9770976922
  H         5.4900329833       13.4935099462       24.8128813337
  H         4.5547469057       14.9126028971       24.7200626761
  C         5.4725898518       14.2396634618       22.8772489557
  C         2.4476686338        7.7604519293       19.6363288205
  C         3.0408316560        9.9482750017       18.5834959198
  C        -0.3553872944       10.2864083872       28.1166000524
  C        -0.6512420370       11.6703909250       28.8549415101
  S        -0.6527403590       14.2829924612       28.7633949388
  H         6.1844195429       14.9629170370       23.1923651938
  H         4.7752611843       14.5778349258       22.0795779463
  C         6.3477032720       13.0339275698       22.3256961196
  N         2.0837319433        6.8515627212       20.6467725585
  C         2.6883717849        7.1129265174       18.4177487004
  C         3.3244798187        9.3232145559       17.4194300228
  H         3.3437742111       10.9573609720       18.8185261066
  C         0.7931097501        9.5591114572       28.8512037626
  C        -1.7013762656        9.3850771060       27.9209183695
  C        -1.0062791822       12.0892320152       30.1065714801
  C        -1.1599176708       13.4291920526       30.2011071823
  H         6.9481434181       12.5674670771       23.1401776221
  H         5.7914492863       12.1695155160       21.8737804056
  C         7.1843218718       13.5225246429       21.1888784072
  S         2.3469529767        5.3318512748       20.1064677993
  N         2.5596319455        5.7180079832       18.5280606705
  C         3.1544401913        7.8634187114       17.2815335442
  H         3.7652150152        9.9364839928       16.5374404466
  H         1.2534082282        8.7156354525       28.2748219535
  H         0.4542142250        9.1426788969       29.8215129823
  C         2.0254154210       10.3819283193       29.2197928365
  H        -1.6122867876        8.6105387624       27.1744586827
  H        -2.0010902532        8.7753482581       28.7463386093
  C        -2.8431688261       10.3006070667       27.4494641087
  H        -1.0673598182       11.3858977404       30.9279948330
  C        -1.6322460935       14.1865877977       31.4526726460
  H         7.8668318769       12.6913502761       20.9713671054
  H         7.8643973555       14.3124927578       21.4275626722
  C         6.5460307898       13.8147798053       19.8446426028
  C         3.2330489337        7.1791450512       16.0480352502
  H         2.3499308524       10.9044417276       28.3711824725
  H         1.7502012693       11.0106722239       30.0180236514
  C         3.1603452203        9.5618554752       29.7664554451
  H        -2.5321003506       10.9413022400       26.5745249343
  H        -3.2170374355       11.0757693373       28.1484350428
  C        -4.0701905824        9.4883307914       27.1337418663
  C        -1.5796571705       15.5984400770       31.6440176391
  C        -1.9321904498       13.3878266539       32.6390793710
  H         6.2898912862       14.8806473211       19.7982321792
  H         7.3679226813       13.6812882246       19.1397432623
  C         5.3561804916       12.9702074793       19.4282989771
  H         3.2345230365        6.1041277194       16.0876339066
  C         3.4885612264        7.5359185177       14.7413719254
  H         3.4645577199        8.9119871329       28.9551974365
  H         2.8778276838        8.7918706345       30.5377955191
  C         4.3765528564       10.3472067731       30.2898462224
  H        -3.9677062475        9.0162064999       26.1677797032
  H        -4.1687321792        8.6838348631       27.7984534036
  C        -5.4071030865       10.2913430816       27.2323782568
  N        -1.2892119410       16.5507071379       30.6673181008
  C        -1.8398174238       16.1397753723       32.8635915181
  C        -2.2000659766       13.9685024631       33.8149924939
  H        -2.0685226228       12.2829842034       32.6023774374
  H         4.9582105403       13.2548851373       18.4435364582
  H         5.6968048576       11.9504865093       19.2571805075
  H         4.5247813212       12.9300229647       20.1437805698
  S         3.8387722443        9.1072957520       14.1052186806
  C         3.5953172194        6.4371802997       13.7543177643
  H         4.4363051079       11.2935578527       29.7642422030
  H         4.3927887675       10.6488147998       31.3140285234
  C         5.7324192086        9.6206394129       30.1094054211
  H        -5.1264950194       11.3571820884       27.1383145771
  H        -5.7415754803       10.2068596450       28.2773428142
  C        -6.4958518126        9.7227028041       26.2736657790
  S        -1.2741418057       18.0606873419       31.3526225840
  N        -1.7326524476       17.5623074568       32.7904645655
  C        -2.2493775427       15.4666179115       34.0026354716
  H        -2.3811383379       13.2965547125       34.6443954815
  C         4.1212094287        8.2351639844       12.5179537756
  N         3.9904956921        6.8717492160       12.5625303269
  O         3.4136444837        5.2104226281       14.0220004234
  H         6.6152747813       10.3156415409       30.0764405053
  H         5.7716813543        9.1312633822       29.1384851267
  C         5.8948666843        8.5210798605       31.1728877407
  H        -6.0751462877        9.3898253311       25.3334222396
  H        -6.9228869428        8.9621563543       26.9661953788
  C        -7.5457671687       10.8238503868       25.8825910890
  C        -2.5433923278       16.1814336967       35.1666671957
  S         4.4339215050        9.0109191251       10.9911614384
  C         4.0390823486        5.8947489265       11.4349702072
  H         6.6622256741        8.9933413365       31.7665307210
  H         4.9838173682        8.5501805632       31.7674811427
  C         6.2734742016        7.1346712213       30.6777684368
  H        -7.0858466960       11.5068506187       25.1928572694
  H        -7.8196130357       11.4267679256       26.7449149609
  C        -8.6882975616       10.1304188000       25.1981845284
  H        -2.4162014581       17.2704083480       35.1441267020
  C        -2.9854118762       15.7469960717       36.3913597003
  H         4.7375740356        6.2701947407       10.6842106685
  H         4.4013501151        4.9181209424       11.7375110950
  C         2.6712571001        5.7070456873       10.7144351919
  H         7.1243760117        7.0735019113       29.9746232066
  H         5.3655013731        6.7157426154       30.1402076206
  C         6.6754485303        6.1342839257       31.7381221039
  H        -9.1077894135       10.6705491680       24.3177774451
  H        -8.3058908765        9.2417522727       24.7413457493
  C        -9.8863146052        9.7067262389       26.1255052211
  S        -3.2266039844       14.0955995020       36.9413489266
  C        -3.2572804312       16.8048271980       37.3557193451
  H         2.0943880894        5.1514608512       11.3973926484
  H         2.2467855910        6.6489801629       10.5066817027
  H         2.8580305764        5.2194647630        9.7737832811
  H         7.3758464967        6.5460020475       32.4634700554
  H         7.1878911188        5.3562862686       31.2028181725
  H         5.8731953707        5.5746404363       32.2352194004
  H       -10.2240976807       10.6485886897       26.6233950236
  H        -9.6599019112        8.9391279278       26.8254317125
  H       -10.7368606829        9.3639705283       25.4927353753
  C        -3.8717505927       14.8897616014       38.3963104916
  N        -3.7697947650       16.2461137453       38.4124319680
  O        -3.0535483117       17.9844132571       37.3062089592
  S        -4.8339622049       13.9960869211       39.6127079949
  C        -4.1117422537       17.0875236057       39.5218177853
  H        -4.4238548734       18.0784672085       39.2177291841
  H        -4.9981118494       16.6494456787       39.9760032215
  C        -2.9232714940       17.2479542141       40.5098592327
  H        -3.2646105926       17.8556021939       41.3060889304
  H        -2.6483452321       16.2489211914       40.8550555165
  H        -2.0984092815       17.7083292078       40.0213526560
