352
 i =    25900, time =    25900.000, E =        25.1277778874
  H        12.0846988274        7.3467228377       32.2162607340
  C        11.7873390132        6.2867564137       32.3751356337
  H        12.7302308050        5.7596622273       32.3316891702
  C        10.7660191297        5.8721212746       31.2174809210
  C        11.2636228370        5.9425506236       33.8226077207
  C        11.2551281418        6.1815234564       29.7705713967
  H        10.4633608573        4.8769474740       31.3466417126
  H         9.8473793358        6.3861283623       31.5102582347
  H        10.3367965820        6.5394841881       34.0851928870
  H        10.9425866922        4.9336043170       33.6812306427
  H        11.9941198865        6.0288067103       34.6020645705
  C        10.1659933795        5.9542333765       28.7469772229
  H        12.0819167145        5.5157128737       29.4104974940
  H        11.6820066379        7.1810011681       29.5223921047
  C        10.6394450685        5.8054377712       27.3361329880
  H         9.8333997688        4.9109873921       28.9060893236
  H         9.4265249574        6.7293015303       28.7688072418
  C         9.6423047390        5.1194865797       26.2610586315
  H        11.6021141581        5.4148307679       27.3610362428
  H        10.7133274650        6.8561690184       27.0296647341
  C         8.4784995641        6.0360937342       26.1129893671
  H        10.0737679852        4.7760905893       25.3512220206
  H         9.1933507235        4.2681374872       26.8295777227
  C         7.2452349224        5.3223783508       25.4622053646
  H         8.2266888550        6.3133838954       27.1347572365
  H         8.7031332286        6.8629063892       25.4986078136
  C         6.9118751561        3.9813631104       26.0892285132
  C         7.6798841712        4.6343750746       24.1870399819
  C         6.0740247908        6.3269510612       25.3427254691
  C         7.1238920801        2.8815150576       25.2582043921
  C         6.3195134117        3.6209479425       27.2945665173
  C         7.5575984019        3.3146560482       24.0331732519
  C         8.1103717218        5.3399339659       23.0888644376
  H         6.3517379404        7.2312647816       24.7010453813
  H         5.9385581723        6.5523711890       26.3849811438
  C         4.7900518082        5.6439639201       24.7301312231
  S         6.7352114520        1.3478050536       25.9821491582
  C         6.1663701815        2.2575027333       27.4359981710
  H         6.0180044278        4.4153510512       27.9564761463
  C         7.8142154294        2.7058456568       22.8495615765
  H         8.0670325217        6.3805838951       23.1214987905
  C         8.4936261794        4.7450353830       21.8963175629
  H         4.8911172892        5.4847256196       23.6878931186
  H         4.6007639048        4.6705176914       25.1996699669
  C         3.4519477974        6.4998223240       24.8202964938
  C         5.7699910909        1.5441908870       28.7290680586
  C         8.3107106844        3.4006893543       21.7048328362
  H         7.6175784855        1.6935783450       22.6887041125
  C         8.7657374801        5.1544812683       20.6082014474
  H         2.6927693232        6.0494900703       24.1554720026
  H         3.5226208065        7.5462961911       24.3074371496
  C         2.7737495684        6.6353741618       26.1823961594
  C         5.7687582370        0.1660567890       29.0504079334
  C         5.4792851049        2.4546910150       29.8523537816
  C         8.5870696323        2.7167292591       20.4594087714
  C         8.9246820640        4.0544339088       19.7322940674
  S         9.1602797235        6.7074138516       19.8468939967
  H         2.0039842139        7.4017936184       25.9511014783
  H         3.4126476931        7.1445973635       26.8949387187
  C         2.1727547864        5.3287237805       26.7232530854
  N         6.2351644853       -0.8184534259       28.1451830834
  C         5.5856098050       -0.3476335689       30.2879909508
  C         5.3181332184        1.9284112373       31.1260878405
  H         5.4431830273        3.4984265213       29.8157865210
  C         7.3947484592        1.9526917995       19.7556907062
  C         9.8866809845        1.8762263535       20.3536466082
  C         9.2612827019        4.4902062928       18.4467260204
  C         9.4096397539        5.8342733692       18.2949694427
  H         1.5073064174        4.8838288990       25.9927365869
  H         3.0096061862        4.6168431625       26.8119269430
  C         1.4568465730        5.6103440473       28.1234362420
  S         6.1366436097       -2.2946435046       28.8531828034
  N         5.5473925053       -1.7732919528       30.3145510282
  C         5.2236723429        0.5022732037       31.4119846998
  H         5.1000846660        2.6536179362       31.9300292707
  H         7.0408734402        1.1819118985       20.4363564460
  H         7.9047520154        1.5182854572       18.9066693956
  C         6.0911715697        2.7869538411       19.3854299218
  H        10.2139037278        1.9505213052       19.3222865340
  H         9.7020352226        0.8329100685       20.4570081177
  C        10.9543982160        2.3421664450       21.3002721957
  H         9.4279586903        3.7861228332       17.6730462478
  C         9.8182691639        6.5048038480       17.0134932920
  H         0.9861500878        4.6567646676       28.3353705789
  H         0.7062434279        6.4062473508       28.0575489536
  C         2.4831498126        5.7209436244       29.3413420794
  C         5.0471556158       -0.0504933254       32.6959899778
  H         6.3016836056        3.4970686089       18.5464716587
  H         5.7914450823        3.4187656561       20.2075517790
  C         4.9773718697        1.9974982652       18.7411948586
  H        10.6122408424        2.1778877457       22.3406619738
  H        11.1782027383        3.4000323784       21.1994684614
  C        12.2859601498        1.6115930741       21.0221900417
  C         9.9213654421        7.9057606887       16.8330895166
  C        10.1648311872        5.6852277757       15.8068553811
  H         3.2800570115        4.9443389729       29.3937013413
  H         3.1410529302        6.5102079850       29.1763056795
  C         1.9257547201        5.6589361995       30.7654314868
  H         5.0381657588       -1.1057305533       32.6608133326
  C         4.8268786167        0.4968483780       33.9276191632
  H         4.5359322326        1.3915420346       19.5245735945
  H         5.4049645087        1.3901441328       17.9533083527
  C         3.8998076947        2.8692822394       18.1299255354
  H        12.4912797255        0.9739160486       21.8773993675
  H        12.1363446878        0.9885329494       20.1331080400
  C        13.3187160883        2.6649901679       20.7015358536
  N         9.7593927009        8.8308581734       17.8373581241
  C        10.1522245341        8.4895132946       15.6042400910
  C        10.4609688265        6.2857830800       14.5501861129
  H        10.1904981255        4.6045788061       15.9022239084
  H         0.9968637337        6.1474420924       30.7521719065
  H         1.8958939669        4.7003011459       31.3330580865
  H         2.4667730557        6.3210611222       31.3352905223
  S         4.6846266586        2.0885176805       34.3879287531
  C         4.6830235586       -0.5129476934       35.0328345247
  H         3.7209477346        3.6954980282       18.7572031660
  H         4.1739949233        3.2360245456       17.1791865059
  C         2.6189797420        2.0559254971       17.9981146951
  H        12.8603340001        3.4437583900       20.0847462639
  H        14.1231458187        2.2024240829       20.1671480607
  C        13.9495980460        3.2792715085       21.9453946575
  S         9.7095490457       10.2895428042       17.1414005588
  N        10.1921931603        9.8468112238       15.6547376535
  C        10.3814292927        7.7475435211       14.4224957423
  H        10.8462128279        5.6042779369       13.8003227658
  C         4.4494852028        1.4490060566       36.0561817709
  N         4.3433170971        0.1132956582       36.1847652185
  O         4.6136033793       -1.7538739538       34.8917364504
  H         1.7614035204        2.6922266330       17.7456900855
  H         2.3163436198        1.7335007924       18.9895321892
  C         2.7636812658        0.8621270335       17.0356001276
  H        14.6126548763        4.1110687829       21.7615386637
  H        13.2071744803        3.7188186365       22.6508797994
  C        14.7638088355        2.1543696680       22.6151486836
  C        10.6306094802        8.5527196743       13.2681238011
  S         4.1424735503        2.3656303177       37.5284413530
  C         4.2616681105       -0.6079421463       37.4321559167
  H         2.5691974422        1.2345621905       16.0300206571
  H         3.7249820833        0.3629916991       16.9319312147
  C         1.8852333390       -0.3402526830       17.4138706898
  H        14.9331937138        1.4440011656       21.8660374722
  H        14.1559398455        1.6906731666       23.4020508814
  C        16.0524684812        2.6337379269       23.3706457340
  H        10.2068035645        9.4885988556       13.3062095677
  C        11.2972134287        8.2304250041       12.0881329614
  H         3.5233338271       -0.1122911998       38.1395315281
  H         3.9021765067       -1.5980850462       37.2327341788
  C         5.6306883666       -0.6685156147       38.0788272098
  H         2.1671061873       -1.1558924612       16.7204154565
  H         0.8677850645       -0.0628553771       17.1628535044
  C         2.0038564719       -0.9489156639       18.8266651649
  H        15.7337614823        3.5552617298       23.8005883495
  H        16.1478233940        2.0223657586       24.2714354038
  C        17.3002448233        2.4176315451       22.5058088895
  S        12.1155589486        6.7405969031       11.7114515701
  C        11.3876836969        9.2608973554       10.9898397741
  H         6.4714272824       -0.7641031457       37.3355951025
  H         5.7714443893        0.1870069574       38.6579956365
  H         5.5328707741       -1.5495558264       38.6800082410
  H         1.3438138452       -0.3892430276       19.5021865006
  H         2.9865879857       -0.9381195973       19.3129330772
  H         1.7354057880       -1.9677723378       18.7359495985
  H        18.1295238200        2.1288053664       23.1968338939
  H        17.6330165564        3.3153873057       21.9576445032
  H        17.0989657250        1.6510640896       21.7754916510
  C        12.3586953398        7.4154093221       10.1097984224
  N        12.0903712135        8.6946132029        9.9789847712
  O        11.1066152110       10.4231760086       11.1364801522
  S        13.0746252723        6.4788992990        8.7901377519
  C        12.2151704271        9.4766580361        8.8038524067
  H        12.6997438869       10.3711936212        8.9733976112
  H        12.9925333313        9.0171593223        8.1441541946
  C        10.8599186551        9.5523147219        8.0741015080
  H        10.2398921456       10.2235832907        8.6385380645
  H        10.9420291637       10.0462971773        7.1209447482
  H        10.3613047355        8.6219775731        7.8807659449
  H        -3.1195002346       15.3421478883       16.2687637866
  C        -3.0413682408       14.2432072475       16.2897906230
  H        -4.0517440264       13.9980614784       16.5249727422
  C        -1.9972695118       13.7068177822       17.2686620216
  C        -2.9935394094       13.6485202925       14.8902039511
  C        -2.3237913332       14.2609161552       18.6815582796
  H        -2.0573871474       12.5694072257       17.4520614837
  H        -1.0551046865       13.9047668291       16.8507718952
  H        -2.1572605281       13.7626234107       14.2248149254
  H        -3.1372592548       12.5617329623       14.9873938853
  H        -3.8162669779       14.0721254803       14.3860510214
  C        -1.3771998318       13.6867336522       19.7561189479
  H        -3.2994715172       13.9715891011       19.0125715222
  H        -2.2389529024       15.3476429191       18.7722528384
  C        -2.1815642266       13.6493733000       21.0085270371
  H        -0.9979643081       12.6732183624       19.5822172750
  H        -0.5720040978       14.3697670586       19.8175494617
  C        -1.3984246891       13.0443147695       22.1437759741
  H        -3.0334109835       12.9923308333       20.8521681754
  H        -2.5377894425       14.6720493175       21.2626071136
  C        -0.2115728551       13.9365496006       22.5789972105
  H        -2.0411660867       12.8400918705       23.0187342291
  H        -1.0661593578       12.0522834238       21.9870652980
  C         0.9421441718       13.3192743479       23.3481794120
  H         0.2528990698       14.3620241607       21.6958779994
  H        -0.6996328528       14.7442573516       23.1925400249
  C         1.3733372200       11.9894180844       22.6458687479
  C         0.5570312864       12.5578897057       24.5712947531
  C         2.2313058135       14.2225487371       23.4335188649
  C         1.3127339858       10.8669039708       23.4497827968
  C         1.7898363592       11.6560570567       21.3446754756
  C         0.7999575452       11.2295541303       24.7005819907
  C         0.0210453591       13.2018657157       25.7128751379
  H         2.3914733958       14.7189371982       22.4784465101
  H         2.0906792663       15.1109317475       24.0202519409
  C         3.5480276730       13.5873748488       23.8262982449
  S         1.7691606876        9.3855886452       22.6998003377
  C         2.0455813866       10.2906039678       21.2456734698
  H         1.8504725988       12.4858685043       20.5748743781
  C         0.4112804974       10.6045693244       25.8771703917
  H        -0.0256186406       14.2853115564       25.6829993888
  C        -0.3308270338       12.5522344021       26.8413817955
  H         3.6020805905       12.6805034222       23.1427606900
  H         3.5335880669       13.1485867446       24.8493871655
  C         4.7075110356       14.5742337192       23.6583717719
  C         2.4039514598        9.5959014726       19.9761043413
  C        -0.2522912478       11.2091698478       26.9312611968
  H         0.6302399372        9.5720326000       25.9255200344
  C        -0.6932557092       12.8699560139       28.1013056393
  H         5.6784776519       14.2155679167       24.1267948344
  H         4.3304418106       15.5155872144       24.1177942267
  C         5.1951370195       14.7594680289       22.1858181576
  C         2.2991093944        8.2027787430       19.6968000686
  C         2.8598196801       10.3794182685       18.8202358608
  C        -0.5062848255       10.4356677832       28.1618600820
  C        -0.7797741545       11.7560113944       28.9548112422
  S        -1.0570703404       14.2989754152       28.9654535852
  H         5.9451610868       15.5636385856       22.0700401192
  H         4.4160617979       15.0553873161       21.5572770942
  C         5.8319838216       13.4370578777       21.5387853129
  N         1.9600666061        7.2018871142       20.6353349082
  C         2.5997648004        7.6891678484       18.4567020982
  C         3.1311553830        9.8382384079       17.5989909446
  H         3.0329049136       11.4325281948       18.8712128621
  C         0.7297431036        9.6719360248       28.6757442684
  C        -1.7599688947        9.6051786032       27.9228578063
  C        -1.0445425875       12.1748749010       30.2988064436
  C        -1.2598101171       13.4545471575       30.4948905523
  H         6.3820342908       12.8318454843       22.3074930400
  H         4.8983615263       13.0180393835       21.2085386599
  C         6.8876230225       13.7440416859       20.4584320564
  S         2.0076647574        5.7792995302       19.9112268238
  N         2.4726977210        6.2892608475       18.4675685796
  C         2.9733959180        8.3888259810       17.2823230166
  H         3.3709562905       10.5103641610       16.8919203762
  H         1.0919512145        8.9587056899       27.8723076083
  H         0.3393626781        9.1108589077       29.6028308361
  C         1.9116614227       10.4420134623       29.2688203207
  H        -1.5472943667        9.0386585776       26.9910236826
  H        -1.8605326988        8.9783815453       28.8503276478
  C        -3.0588775780       10.4247784108       27.5813488749
  H        -1.1245464728       11.4949187763       31.1464577933
  C        -1.3999936504       14.1777491567       31.7791177527
  H         7.3677017370       12.7592534021       20.1819990469
  H         7.6081362589       14.3151206769       20.9994792498
  C         6.4048881389       14.5929991331       19.2264786864
  C         3.1507010617        7.8394383930       15.9994673462
  H         2.2864529249       11.0356519528       28.4463063575
  H         1.6271783410       11.1785707537       30.0714308212
  C         2.9754646626        9.4233215748       29.7043391434
  H        -2.8955099880       11.1109055577       26.7649131277
  H        -3.2783124042       10.9456229234       28.4837308229
  C        -4.2911879163        9.6475162708       27.0346722746
  C        -1.5241057312       15.5911533293       31.9764715960
  C        -1.5529047995       13.3499615558       33.0413922500
  H         5.6384182232       15.3025417932       19.6135110592
  H         7.2580502686       15.0211820573       18.8126759168
  C         5.8388073078       13.6544180245       18.2316385194
  H         3.1594823573        6.7594458883       15.9593066969
  C         3.4263164953        8.3546097966       14.7418837851
  H         3.1690090978        8.8580869726       28.8114866849
  H         2.6080029007        8.6461804341       30.3388703734
  C         4.2164982591       10.0992805547       30.2358522586
  H        -4.0045303007        9.0016664088       26.1813793124
  H        -4.6167920591        9.0085411109       27.8611111197
  C        -5.3432618066       10.7079883408       26.6483785323
  N        -1.3421762393       16.5883654958       30.9871388527
  C        -1.6490625742       16.1469866076       33.2146683620
  C        -1.8176781269       13.9440669270       34.2653451056
  H        -1.2964141021       12.2771956170       32.9504997999
  H         6.6989934439       13.0703019514       17.8012543458
  H         5.0120350752       13.1024802121       18.7191503925
  H         5.4313457127       14.1808279220       17.3470066882
  S         3.7108661646        9.9722110965       14.3882230697
  C         3.3776852003        7.3795159479       13.6180930092
  H         4.4020634406       10.9602803440       29.6439934473
  H         4.0465787080       10.5797148613       31.1744010268
  C         5.4340322058        9.1644211670       30.1862737004
  H        -4.8714083932       11.6315831952       26.3878071511
  H        -5.9386157014       10.9561710602       27.5118123233
  C        -6.2439133093       10.1999610089       25.5144838077
  S        -1.2381305088       18.0225372164       31.6465886304
  N        -1.5576487544       17.5855421163       33.1616011893
  C        -1.7901389032       15.4022450712       34.4213812186
  H        -2.0191969602       13.1838189348       35.0468230358
  C         3.9221259116        9.4014539172       12.7275084177
  N         3.6353853930        8.0862921919       12.4119128808
  O         3.2355857333        6.1518531280       13.7960319565
  H         6.2559188679        9.7546321051       29.7734940571
  H         5.1547207267        8.2783546690       29.5635521478
  C         5.9156718303        8.6514197980       31.5558808885
  H        -5.5424184648       10.1068428083       24.6222112279
  H        -6.5672393643        9.2175364752       25.8874431686
  C        -7.3705697429       11.2760512864       25.3854977024
  C        -2.1752916400       16.1713920963       35.5472675504
  S         4.2286856652       10.4624136692       11.3842863613
  C         3.6726893271        7.5015598346       11.0550696173
  H         6.5974030511        9.4353306131       31.9481278586
  H         5.0971094075        8.4952222635       32.1782497981
  C         6.8484873876        7.4507918339       31.5214578740
  H        -7.8257968639       11.2614917825       24.4531590637
  H        -6.9187338304       12.2876032308       25.5679970487
  C        -8.4779212987       11.0723269934       26.4021753838
  H        -1.8848177725       17.2399214269       35.5763092010
  C        -2.9005072313       15.8500304324       36.6963726594
  H         4.1845950871        8.0678190681       10.2916401184
  H         4.1649466873        6.5680181045       11.1322790421
  C         2.2787871077        6.9479674269       10.8364354404
  H         7.2152015928        7.1798363398       32.5423537581
  H         7.8005843095        7.7865495006       31.0096627323
  C         6.0901463579        6.3024808327       30.9539886092
  H        -8.0862077359       10.7483689252       27.3617934120
  H        -9.1290747960       11.9507654198       26.5203409172
  C        -9.5253153672       10.1085479653       25.9175170042
  S        -3.5263032656       14.3503133715       37.1336705044
  C        -3.1146299861       17.0096209075       37.6672265579
  H         1.5852066874        6.9354582812       11.6763507407
  H         1.7732746244        7.4572761003       10.0566545386
  H         2.2826768926        5.9468028309       10.4724746120
  H         6.2759488666        6.3849451953       29.8998523002
  H         5.0361963773        6.5205766534       30.8510406041
  H         6.4147490482        5.3068552254       31.3456908130
  H       -10.3737382775       10.0292818435       26.5401051191
  H        -9.1565356299        9.0706123143       25.6691816203
  H        -9.9036684578       10.5999350316       24.9854237488
  C        -3.9543575767       15.2364544063       38.6675794045
  N        -3.6775744322       16.5407069597       38.7586312899
  O        -2.3487036542       17.9800930669       37.6426647607
  S        -4.7822345976       14.5252413849       40.0170059486
  C        -3.6952630240       17.3371910060       39.9597986861
  H        -3.7452124209       18.3335807623       39.5132808754
  H        -4.5354393179       17.2755052778       40.6285217774
  C        -2.4711116177       17.0766512977       40.8323050377
  H        -2.7975938304       16.7599933564       41.8464378126
  H        -1.8207180161       16.3547026474       40.3763917628
  H        -1.9169936069       18.0309142549       40.8867526858
