352
 i =    15200, time =    15200.000, E =        24.4424083478
  H        11.6691663125        6.2439317056       32.7321012813
  C        11.1851592540        5.2827303662       32.6260020648
  H        11.9314706297        4.5573150287       32.5472827103
  C        10.2256456385        5.5172632097       31.4293374474
  C        10.4294305785        4.7957041599       33.9274305855
  C        10.9967342790        5.1475030056       30.1315608953
  H         9.2868829945        4.8944370031       31.4905850362
  H         9.9538306404        6.5575975367       31.4496508465
  H        11.2572932637        4.9753553292       34.6599413657
  H         9.5678216936        5.3956556937       34.0848528125
  H        10.1178617132        3.7596002692       33.9443050508
  C         9.9642731572        4.8481372442       29.0518179061
  H        11.5746878116        4.2327639025       30.1828258843
  H        11.6701953541        5.9527744013       29.8422265784
  C        10.7434683064        4.8226871949       27.7172414020
  H         9.4667247283        3.9041446444       29.1642395076
  H         9.2541413511        5.6501844044       29.1421197684
  C         9.9888188663        4.3805051757       26.5083420746
  H        11.5456428824        4.0770925958       27.7667356492
  H        11.1949725080        5.7966054277       27.6245071681
  C         8.7746402659        5.2196461002       26.1027203847
  H        10.5450475790        4.1059301122       25.6172914817
  H         9.6996432405        3.3395610727       26.7307043348
  C         7.5528323508        4.5820955893       25.3444884808
  H         8.4199265265        5.8838576708       26.8911082960
  H         9.0278131795        5.8087754101       25.2452755148
  C         7.0218051440        3.2840299864       25.8845651295
  C         7.9662553366        3.8773593584       24.0047574855
  C         6.3300092840        5.5217734201       25.2297371216
  C         7.2126700490        2.1817420585       25.0478141338
  C         6.5561795185        2.8332814706       27.0839470395
  C         7.8015729767        2.5529975883       23.8672488038
  C         8.4305391782        4.5832849002       22.8589576929
  H         6.5407389953        6.4099292376       24.5935898129
  H         6.0858714734        6.0560677618       26.1807591377
  C         5.0716206078        4.8801318136       24.7394532037
  S         6.7510398124        0.7154891021       25.7505152119
  C         6.3876931279        1.5464618548       27.2282997873
  H         6.4676516468        3.5738848837       27.8486083189
  C         8.2299464566        1.9734748817       22.6931683121
  H         8.5570878255        5.5940089722       23.0205785693
  C         8.8140731559        4.0061470490       21.6827897593
  H         5.1522736885        4.1346635289       23.8895957667
  H         4.8209547007        4.1760809738       25.5961527586
  C         3.8646846008        5.8223333916       24.3991949220
  C         5.9889391936        0.8382143553       28.4741173996
  C         8.7851252137        2.6662126564       21.6014682606
  H         8.1809628765        0.8991305098       22.6486706651
  C         9.2048966023        4.4548880159       20.4397039185
  H         3.3620096363        5.0831651804       23.8740466058
  H         4.0386316413        6.6577996589       23.7598914961
  C         3.0998773224        6.3351532135       25.6799112364
  C         6.0800895526       -0.5283811050       28.7019785840
  C         5.1829006971        1.5903758163       29.4677348083
  C         9.1219165033        1.9808502496       20.2699520528
  C         9.4242777975        3.4069586259       19.6168378482
  S         9.5216684581        6.0338492495       19.6625457246
  H         2.4380499921        7.2159388352       25.5201038737
  H         3.9097883799        6.6041417352       26.3612656502
  C         2.1577086383        5.2694084910       26.2234456780
  N         6.3885957944       -1.5319160605       27.8015919644
  C         5.6846137578       -1.0570132525       29.9042213469
  C         5.0023871167        1.0966416820       30.7156236308
  H         5.0591166380        2.6680871007       29.4134240082
  C         7.9118325406        1.3179895687       19.5357096117
  C        10.3866630170        1.1336870632       20.5192352834
  C         9.8372846320        3.8482577647       18.3252223770
  C         9.9926159577        5.2060943470       18.2164910063
  H         1.2544995114        5.3699863085       25.5911448206
  H         2.5635285894        4.2371203456       26.0590093064
  C         1.7613177684        5.5863407344       27.6671389062
  S         6.4087095885       -2.9701444423       28.5451099880
  N         5.8323384446       -2.4106746848       29.9763408441
  C         5.2182445097       -0.3048450582       30.9844817341
  H         4.6020653532        1.8091964976       31.4523698514
  H         7.6583040282        0.6267591723       20.3263698180
  H         8.2771559940        0.7880560191       18.7041850913
  C         6.7174601559        2.1953374279       19.1144575573
  H        10.4996300035        0.3507427148       19.8039278701
  H        10.2758235610        0.5569040451       21.4543832359
  C        11.7978832455        1.8389344127       20.5033661598
  H         9.9832147435        3.0802011587       17.5771193984
  C        10.3573337847        5.9503531898       16.9692296908
  H         0.8572286272        5.2307354628       28.1152082146
  H         1.5497713198        6.6814250812       27.6796699487
  C         2.9014321318        5.3172887320       28.6801021097
  C         4.9576789100       -0.9527554279       32.2112638604
  H         7.0001899363        2.8238888056       18.2958546760
  H         6.4639756528        2.9674251774       19.8617690908
  C         5.4924279141        1.5312523448       18.6721519986
  H        11.7995890467        2.7884274804       21.0339129545
  H        12.0564973938        2.1134559472       19.5021617871
  C        12.8966112846        0.9276944400       21.1230445851
  C        10.2651241604        7.3439598776       16.7993025496
  C        10.8166660979        5.2011423819       15.7812835176
  H         3.2150504516        4.3045971362       28.7019051288
  H         3.7806812085        5.8908682765       28.4424338339
  C         2.4938659617        5.7880043761       30.0906073664
  H         4.9272331981       -2.0491064096       32.1518891999
  C         4.6150385949       -0.5333353093       33.4764935513
  H         5.0797685903        1.0976254901       19.6227920039
  H         5.7171114541        0.6446953941       17.9924965308
  C         4.5320173863        2.4758081247       17.8884251895
  H        12.5876221233        0.5869392676       22.0985518790
  H        13.1410371431        0.0591825440       20.5526101459
  C        14.1532019063        1.8148661502       21.1304962640
  N         9.9474327984        8.2102916424       17.8389862749
  C        10.4895268658        7.9773821392       15.6244281159
  C        10.9631612885        5.8499313962       14.5533027120
  H        10.8613271918        4.1831490856       15.8846456400
  H         1.6795970796        6.4822501053       30.2129553404
  H         2.2446260238        4.8800997659       30.5979225808
  H         3.3365765442        6.2388971754       30.6434124180
  S         4.2522897321        1.1018884220       34.0462566270
  C         4.5061665805       -1.5305002174       34.5777840919
  H         4.7808998650        3.4339085220       18.2513307130
  H         4.9480988660        2.4773956594       16.8604194341
  C         3.0963181915        2.1193270336       17.9638473600
  H        13.8811686243        2.7959390717       20.7575593658
  H        14.9120130542        1.5374361268       20.3933999850
  C        14.6875952156        2.1312336010       22.5300323737
  S         9.9408238099        9.7038008321       17.1957242968
  N        10.4296387769        9.3425014022       15.7289347137
  C        10.8535018930        7.3322526754       14.5089054095
  H        11.2594200106        5.2490076626       13.7006441247
  C         4.1153668366        0.4586053140       35.6941327635
  N         4.0932026168       -0.8901115891       35.7298970033
  O         4.5301339495       -2.7762866883       34.3551311503
  H         2.4475987206        2.7975959899       17.4299246182
  H         2.7795388211        2.0514074760       18.9667613867
  C         2.9648281826        0.7159637863       17.2879122253
  H        15.3639638259        2.9812977188       22.4174892753
  H        13.8490887086        2.4886569235       23.0784364450
  C        15.3802014089        0.8999087229       23.1919969375
  C        11.1068204127        8.1275323991       13.3182348569
  S         3.6475155664        1.3797975561       37.2033378452
  C         3.8433777336       -1.6639644924       36.9600451888
  H         2.1275228734        0.8323945912       16.5315495034
  H         3.8318973577        0.4494264377       16.7429289971
  C         2.5922112188       -0.4720167358       18.2160013018
  H        15.6058539174        0.2631927987       22.3282604261
  H        14.7582994851        0.2181009638       23.8541038188
  C        16.7313544618        1.1930188006       23.8152968087
  H        10.9305958031        9.2253760870       13.4026589646
  C        11.5848113296        7.8098130457       12.0777719982
  H         3.1031027915       -1.2166684768       37.5694908666
  H         3.4002146981       -2.6018456526       36.7613342716
  C         5.1222514221       -1.9397480045       37.7553404975
  H         1.4734834085       -0.4635689018       18.2727901583
  H         3.0332494722       -0.3919731086       19.1394514289
  C         2.8798240514       -1.7919561271       17.4567759595
  H        16.5233312687        1.8613927682       24.6973417710
  H        17.1920747814        0.2990325190       24.1879057313
  C        17.7983616953        1.6559364548       22.8525471925
  S        12.1024570758        6.2823697655       11.4289320485
  C        11.6901817441        8.9886858997       11.1571963252
  H         4.8087566428       -2.5388031465       38.5789385927
  H         5.7794174494       -2.4712158011       37.0454900912
  H         5.6701459779       -1.0164274770       37.9786648975
  H         3.9270254265       -1.9743311389       17.3013068005
  H         2.4062932229       -1.7096644479       16.4374166684
  H         2.4326237249       -2.6814223170       18.0115491824
  H        18.7377315212        1.5703091625       23.3917827759
  H        17.6154233305        2.7352291016       22.5574551112
  H        17.8647187184        1.0284976168       21.9683230436
  C        12.4351693593        7.2054104268       10.0018139256
  N        12.2133929858        8.5480486880       10.0067032604
  O        11.3040088157       10.1322911557       11.3743592263
  S        13.2067912449        6.6051447226        8.5747648923
  C        12.3045778965        9.4979459224        8.9751433656
  H        12.2880945026       10.5436421711        9.3548529949
  H        13.2322669728        9.4098536992        8.4950636853
  C        11.1700245287        9.4785601769        7.9633600268
  H        10.1280481935        9.6435333901        8.3726543630
  H        11.4032794187       10.1653644859        7.1589643561
  H        11.1224508367        8.4529587812        7.5539075567
  H        -3.6144710605       14.6799316311       15.8758118423
  C        -3.1853693244       13.7591966924       16.2060526283
  H        -4.0519232140       13.2690974181       16.6067101759
  C        -2.0580116155       13.9982817562       17.3108716864
  C        -2.7698872007       12.9421369750       14.8794192006
  C        -2.6517223255       13.7740334748       18.6759812797
  H        -1.1830292299       13.4288326614       17.1065879674
  H        -1.6098872318       15.0110557209       17.1193086515
  H        -3.6814105641       12.5653608326       14.3695063777
  H        -2.1110086674       13.4859001885       14.2322809552
  H        -2.2139867491       12.0375075055       15.1752193507
  C        -1.4682042409       13.6657432256       19.7175749857
  H        -3.0713930094       12.8030200370       18.5901430443
  H        -3.4446990355       14.5498280064       18.9187732191
  C        -2.1771971735       13.4702929890       21.1727952923
  H        -0.8576582945       12.8300038760       19.3862893489
  H        -0.7942936062       14.5100479672       19.8693668400
  C        -1.3048631040       12.6812359530       22.1694779089
  H        -3.1224947514       12.9839662553       21.1135626542
  H        -2.4416520081       14.3925045001       21.6496720374
  C        -0.0298200916       13.5834687017       22.5215835028
  H        -1.9619089877       12.4612591041       23.0354274782
  H        -0.9711487113       11.7465581532       21.7008280700
  C         1.0643511607       12.9306662302       23.3715134324
  H         0.4236644860       13.9742540622       21.6608173122
  H        -0.4596489429       14.5165324201       22.9082206622
  C         1.4157743741       11.5757518135       22.7300770901
  C         0.6665614966       12.2718192136       24.6373460348
  C         2.2595748218       13.8198901751       23.5368720047
  C         1.4066421390       10.5452500968       23.5945078105
  C         1.8653093547       11.1584622448       21.4540590425
  C         0.8225130498       10.9545041059       24.7878243434
  C         0.1188701761       13.0108323806       25.7149451980
  H         2.3578798585       14.4583753377       22.6047860118
  H         2.0946758706       14.4681583501       24.3602424182
  C         3.5844245451       13.1800256984       23.8338877759
  S         1.9260838925        9.1037667361       22.8554212248
  C         2.1779232827        9.8190840748       21.3304581300
  H         1.9229527692       11.9740506051       20.7471179045
  C         0.4281462210       10.3169178666       25.9067486313
  H         0.0312543919       14.1008410731       25.6468957205
  C        -0.1275105574       12.3393945990       26.8830144984
  H         3.7625286525       12.3016021242       23.2846799906
  H         3.6463113535       12.8628834628       24.9046518689
  C         4.8560190403       13.9839367098       23.6317218304
  C         2.6862586033        9.1164650460       20.1025192355
  C        -0.0605265433       11.0066882417       26.9967461652
  H         0.6383460958        9.2818040140       26.1495398887
  C        -0.5544448338       12.6819306889       28.1754410071
  H         5.6302462444       13.5331324716       24.1828698477
  H         4.7003464830       14.9355568063       24.1571631647
  C         5.3626836244       14.0518797636       22.1910785942
  C         2.5985844500        7.6949341526       19.8271022836
  C         3.3203725270        9.9073168026       19.0352202808
  C        -0.4767443564       10.2408172411       28.2462907689
  C        -0.7267968476       11.5670093858       28.9718346454
  S        -0.9208457765       14.1192120659       28.9690848817
  H         6.0046716011       14.8919179124       22.0404769300
  H         4.5360474507       14.4221835864       21.5797404081
  C         5.7788144335       12.7287763314       21.6366607449
  N         2.1103983242        6.7283157741       20.7046900739
  C         2.8729673099        7.1052888219       18.5910820683
  C         3.5756707859        9.2948519479       17.7883921793
  H         3.4690526459       10.9831976702       19.2186877880
  C         0.7089204968        9.4866919394       28.8836177428
  C        -1.8008939893        9.4417446201       28.2240612692
  C        -1.2140401343       11.8540760296       30.2204658538
  C        -1.3710489341       13.1852254135       30.3511521243
  H         6.2807190000       12.2091481245       22.4053315308
  H         4.9551897370       12.0348296995       21.2837479436
  C         6.7240882794       12.9387299123       20.4327185747
  S         2.0443854696        5.2876859033       19.8962605903
  N         2.5648971382        5.7356660887       18.4961074275
  C         3.3652739145        7.8095942232       17.5054978740
  H         3.9775795753        9.9940993073       17.0654388134
  H         1.1859727684        8.8869065236       28.1285126839
  H         0.4364249404        8.7227894868       29.5983706672
  C         1.8555902725       10.4013345398       29.4380022351
  H        -1.5322734581        8.4770353119       27.7571975232
  H        -2.0715391866        9.2061586604       29.2265658144
  C        -2.8376779004       10.0574696477       27.4140678134
  H        -1.3822376207       11.0758818851       31.0156461933
  C        -1.7870476962       13.8871421933       31.6138310604
  H         7.1310760858       11.9234662237       20.2805303418
  H         7.5241818131       13.6954352180       20.6426487628
  C         5.9379604124       13.3721046840       19.2040636228
  C         3.5894462959        7.0987606582       16.2438854377
  H         2.1358231958       11.2323934629       28.6630520471
  H         1.4997082205       10.7651810742       30.3989549550
  C         3.0583312475        9.5610581345       29.7208663594
  H        -2.5252552845       10.1080126187       26.3165421655
  H        -2.9213629470       11.0812410344       27.6789864473
  C        -4.1904119384        9.3561554315       27.4384199907
  C        -1.7580020472       15.2675737264       31.8074830467
  C        -2.3177730598       13.0348016140       32.7158478315
  H         5.2582899249       12.5910892543       18.8848954142
  H         5.2375763999       14.2374880445       19.2655128119
  C         6.7945663161       13.4998650144       17.9759774135
  H         3.5029511834        5.9702334262       16.3328829746
  C         3.7259055414        7.6034125677       14.9759411505
  H         3.6362148388        9.4188879177       28.7208696334
  H         2.6604097480        8.6535633653       29.9942034438
  C         3.9100539100       10.1146012007       30.9467313364
  H        -4.0645536831        8.5563055060       26.7337677541
  H        -4.2841099135        8.8689734652       28.4129577743
  C        -5.2887143898       10.4662233594       27.1286144084
  N        -1.5186793567       16.2368573407       30.8680927337
  C        -2.1325171210       15.8194983829       33.0666330606
  C        -2.6550292210       13.6033275020       33.9500307123
  H        -2.3769488059       12.0307197537       32.5508958154
  H         7.5282916318       12.7660242667       17.9376465065
  H         6.0888187746       13.3716002723       17.1399050646
  H         7.2886029899       14.5263565372       17.8711726779
  S         3.8384992682        9.3011180759       14.4496620443
  C         3.8288592478        6.6917160894       13.7843354801
  H         3.8145038102       11.1281097356       31.1667585796
  H         3.5502388746        9.6316486885       31.8536791003
  C         5.3617297302        9.7065444789       30.8159501295
  H        -4.8307445041       11.3376117987       26.7406451602
  H        -5.6059464323       10.8430209331       28.1624102204
  C        -6.4595341890        9.7625781256       26.3928328833
  S        -1.5046082051       17.6287801903       31.5689053287
  N        -1.9368258914       17.1565008820       33.0754793865
  C        -2.5987500990       15.0784052118       34.2040458125
  H        -2.9142346413       12.9142520997       34.7774070964
  C         3.9645908170        8.8151353803       12.8047205308
  N         4.1166973741        7.4194401952       12.6671437775
  O         3.8380507767        5.4510457589       13.9319836585
  H         5.8809807317       10.3156593166       31.5620922392
  H         5.6955389510       10.1057206628       29.8639941055
  C         5.5994719634        8.2085962685       31.1442306129
  H        -6.1360479034        9.1066501863       25.5511124521
  H        -6.8234052934        9.1234476559       27.1445978952
  C        -7.4990004465       10.7377517954       25.9280236843
  C        -2.8152918460       15.7543163285       35.4887857780
  S         4.1739038167        9.9700762224       11.4433475614
  C         4.2643356625        6.8483715717       11.2675469665
  H         6.1493799526        8.0382055885       32.0891611359
  H         4.6171329902        7.8400119178       31.2329272911
  C         6.0780483078        7.3782354765       29.8884098618
  H        -7.2299963969       11.1331917938       25.0255147926
  H        -7.7082804675       11.5731296599       26.6170705970
  C        -8.9179214877       10.0188632211       25.8374609127
  H        -2.3435628545       16.7109471315       35.5448758988
  C        -3.5088594836       15.3621439189       36.6327348369
  H         4.7689989581        7.5555326741       10.6386691529
  H         4.9820146454        6.0109941280       11.2797288750
  C         2.9307871097        6.4135279554       10.6110407482
  H         6.9816922744        7.8549947864       29.4449947735
  H         5.2849205454        7.5828415994       29.2016436053
  C         6.2858141989        5.8819757445       30.1687589199
  H        -8.9722226191        9.1836967947       26.4828064937
  H        -9.7490819816       10.6177854127       26.2164136762
  C        -9.2275979482        9.6627047407       24.3682282468
  S        -4.3600449979       13.9172747751       36.8530485638
  C        -3.4859906791       16.3657691166       37.7313587969
  H         2.1592424853        6.4285232318       11.3574204134
  H         2.7142896810        7.1625570744        9.8085628705
  H         2.9543681741        5.4813845184       10.1123454507
  H         6.9525832569        5.7693862817       30.9897139251
  H         6.7013078354        5.3773934469       29.2382559846
  H         5.3659960619        5.4370907519       30.3970227752
  H        -8.7269974605        8.7591700994       24.1297908912
  H        -8.9811404910       10.3539990482       23.6199283515
  H       -10.2538338967        9.4412317316       24.4278478093
  C        -4.6738987711       14.5679224735       38.4631916684
  N        -4.2033204168       15.8487593797       38.7113919467
  O        -2.9194427540       17.4943620222       37.6350550539
  S        -5.4015067737       13.6088392111       39.7873137144
  C        -4.4053423683       16.5476018714       39.9577263738
  H        -4.6836468902       17.5737394218       39.6146184269
  H        -5.2637018371       16.1983812754       40.5135834698
  C        -3.1271271940       16.5603718275       40.8052946944
  H        -2.5078306802       17.4682618508       40.7042797008
  H        -3.3370787906       16.3395197732       41.8809793637
  H        -2.6021136220       15.7474376749       40.3215867312
