352
 i =     6600, time =     6600.000, E =        27.1786281136
  H        11.5599256846        7.6584766712       32.2247722420
  C        11.4348791154        6.6097104553       32.2272359082
  H        12.4331885203        6.2541052566       31.8982683862
  C        10.4375008487        6.2564525571       31.1713714747
  C        10.9609878339        6.1346744508       33.5923213873
  C        11.1113757507        5.8881869740       29.8408517553
  H         9.8449026478        5.3716374911       31.4801913257
  H         9.7632350304        7.0402199620       31.0431226291
  H         9.9390149658        6.4857586178       33.7061893037
  H        11.1032707846        5.0557071791       33.8384861020
  H        11.5461394834        6.6814368401       34.3230544886
  C        10.0868507451        6.1732317259       28.7364979856
  H        11.5514308834        4.9153321466       29.7514969314
  H        11.9152640155        6.5718998653       29.6900776211
  C        10.6520688833        6.0050938987       27.3392333708
  H         9.4819771847        5.3395109485       28.9503310867
  H         9.5208530364        7.1179404600       28.9522832535
  C         9.7102982068        5.2621290402       26.4043229018
  H        11.6536659749        5.5224286033       27.5269078704
  H        11.0575556249        6.9087569707       26.8343349950
  C         8.5720666827        6.0603870173       25.9543405637
  H        10.2763760906        4.9807289946       25.5564382800
  H         9.4320904047        4.3556907002       26.9458628617
  C         7.3753106542        5.2734637837       25.3191932066
  H         8.1707693965        6.6337233625       26.7946317010
  H         8.9937796875        6.8817104387       25.3137529827
  C         7.0472174302        3.9442774983       26.0767702218
  C         7.7999288239        4.4950570411       24.0772627318
  C         6.0709231027        6.1568424944       25.0455438005
  C         7.2839370020        2.8600745225       25.2934512256
  C         6.5046275524        3.6958619506       27.3215110048
  C         7.7385153209        3.1699532986       24.0441097520
  C         8.2890208849        5.1677172864       22.9997710488
  H         6.1647274558        6.9064830519       24.3132288927
  H         5.8691495515        6.8737044181       25.9104650504
  C         4.8914473368        5.2773616702       24.6784155073
  S         6.9792520716        1.4187793399       26.1820196820
  C         6.4476875071        2.3258879734       27.5662409676
  H         6.4157873441        4.5422222959       27.9049509780
  C         8.2530255420        2.5315032510       22.9366856463
  H         8.3384497170        6.2413088663       23.0183301916
  C         8.6422947045        4.5649244102       21.8529779475
  H         5.0522496523        4.7997194158       23.7178650215
  H         4.7004400761        4.3676558781       25.3299685731
  C         3.6015239201        6.0927754309       24.4480322482
  C         5.9664820106        1.7078684820       28.8250416487
  C         8.6634708057        3.2397840468       21.7689411702
  H         8.3120112513        1.4045013361       22.8408143893
  C         9.0555122266        5.0425688240       20.7116823950
  H         3.1377939939        5.6889752453       23.6639953260
  H         3.7800901803        7.0999418189       24.0951685363
  C         2.6616048386        6.4363747267       25.6740961894
  C         5.8800196915        0.3038966367       29.1597027216
  C         5.6577658238        2.5926974369       29.9615609022
  C         9.1545761087        2.5664994024       20.4982663189
  C         9.3089548313        3.9988944520       19.8133822757
  S         9.2733143169        6.5993245320       19.9603259246
  H         1.7415004541        7.0076748283       25.4139826046
  H         3.1646626754        7.1286782656       26.4250638218
  C         2.0830840350        5.0977241206       26.3739630655
  N         6.2860825705       -0.7358092128       28.3060964753
  C         5.6660838270       -0.1483117703       30.4254356845
  C         5.3314777542        2.0962311174       31.2122825382
  H         5.7202721739        3.6652502333       29.8863096586
  C         8.0620611889        1.7575489883       19.6808588165
  C        10.4679448156        1.7254002766       20.6200888656
  C         9.7092105368        4.4769602044       18.5378076117
  C         9.8512046141        5.8443015197       18.4786844181
  H         1.4751861195        4.6334260093       25.5551522459
  H         2.9021623776        4.4161992827       26.6322668654
  C         1.2251046855        5.3661317802       27.5876555803
  S         6.0967248382       -2.1558864521       29.0982935071
  N         5.8275103731       -1.5503165029       30.5710046195
  C         5.4020173074        0.6563827629       31.5584026289
  H         5.2415442206        2.8907570729       31.9392797245
  H         7.7946514898        1.0062055336       20.3705267838
  H         8.5351065396        1.2036017614       18.8447189096
  C         6.8943903295        2.5301415475       19.1183753610
  H        10.5615011706        1.2817036252       19.6152649812
  H        10.4752967668        0.9003953762       21.3211844541
  C        11.7780965496        2.4465369489       20.9325484147
  H        10.0473903944        3.8359182011       17.7489124945
  C        10.2530296882        6.5666296286       17.2850063339
  H         0.5255155162        4.5597629032       27.8496722638
  H         0.7141188301        6.2801044395       27.3905040951
  C         2.0261721148        5.4910589487       28.9301298106
  C         5.2237618509        0.0502487100       32.8361761730
  H         7.1008986802        3.0633779803       18.2159547828
  H         6.4188035368        3.1575814339       19.9262841531
  C         5.7939095492        1.5831610861       18.7178612970
  H        11.6358820995        2.9941067865       21.8355942077
  H        12.0034857959        3.0666467719       20.0363270530
  C        12.9218704624        1.5430486382       21.3277949197
  C        10.2040164416        7.9609734534       17.0489811087
  C        10.5981340652        5.8219366921       16.0829655366
  H         2.8064516220        4.6854429876       28.9349103552
  H         2.5406759478        6.4613371397       28.7963420733
  C         1.2237137485        5.4424152955       30.1951925635
  H         5.0499633452       -0.9897875155       32.9030690904
  C         4.9270847030        0.5069918551       34.0985307510
  H         5.6478532484        0.8738215862       19.5324299499
  H         6.0370417054        1.0370735532       17.8283959989
  C         4.4954127282        2.3331363318       18.5018954774
  H        12.6861439974        1.2109200089       22.3135761961
  H        12.9271151791        0.6601915555       20.7722790391
  C        14.2421887438        2.1108611301       21.1145174099
  N         9.7337938919        8.9059512459       18.0226553237
  C        10.4983754867        8.5442088466       15.8319588751
  C        10.8420282820        6.3884172426       14.8371773483
  H        10.9071661052        4.7882884423       16.0552670926
  H         0.2504799912        4.9673560990       29.9651973700
  H         1.6060320483        4.8408767719       31.0109381341
  H         0.9888815780        6.4190114444       30.4267095909
  S         4.6184401788        2.1745438448       34.5089766623
  C         4.7586153861       -0.4892208351       35.1695345890
  H         4.3670495457        3.0560030711       19.4006116090
  H         4.7574185855        3.0519894522       17.6845302180
  C         3.2152658602        1.5605845162       18.2964381444
  H        14.2892258388        3.2074430868       21.2767071191
  H        14.5168788162        1.9603159597       20.0939739595
  C        15.3263407938        1.5185562453       22.0219077386
  S         9.7530095409       10.3767070838       17.3324165917
  N        10.2236186310        9.9312174854       15.8419086071
  C        10.9122694220        7.8942039250       14.7318638418
  H        10.9740887566        5.7135122245       14.0629754393
  C         4.4519476165        1.5620487534       36.1411676218
  N         4.4966429485        0.2134163295       36.3021359696
  O         4.6834906611       -1.7142066923       35.0164584013
  H         2.4528384658        2.2849422378       17.9527263697
  H         3.0471335131        1.1970110708       19.2892122941
  C         3.1969391988        0.3160935959       17.3672384456
  H        15.0530210156        0.6267878663       22.5040879383
  H        16.1179108361        1.3391566569       21.3935048355
  C        15.6739786115        2.4550137951       23.2744611680
  C        11.0908369994        8.5869061171       13.4996293300
  S         4.0427905778        2.5567179459       37.5032671642
  C         4.3334039769       -0.5125680177       37.6069010781
  H         2.4076253878        0.3875184922       16.5913140844
  H         4.1058520863        0.4250539599       16.8448410911
  C         2.9793403206       -1.0109426075       18.0799861383
  H        14.7640516050        2.4875963471       23.8909273584
  H        15.8941642806        3.4254154803       22.9601668641
  C        16.8919568028        2.0486879183       24.1449106943
  H        10.6349934729        9.5078265975       13.5138374994
  C        11.6281283569        8.0752831966       12.3409824273
  H         3.7131939865        0.0996208761       38.3549111657
  H         3.7812706385       -1.4249818315       37.5337014020
  C         5.6598518514       -0.8410971253       38.1532877712
  H         2.4171093373       -0.9361205149       18.9607203701
  H         3.9228767428       -1.4299405487       18.3205779085
  C         2.3214990922       -2.1057612810       17.2388675937
  H        17.0193232513        2.6718277485       25.0806139266
  H        16.9096414651        1.0164961178       24.6454159220
  C        18.0776896057        2.1202366964       23.2013222543
  S        12.4787395617        6.5822624654       12.0732043971
  C        11.6342774355        8.9493077585       11.1685582958
  H         6.1647482204        0.0217690773       38.5345521102
  H         5.4698062404       -1.5305477048       39.0378294442
  H         6.2962459179       -1.4086671947       37.4471841186
  H         1.2469514316       -2.0336672334       16.9393407443
  H         2.6023031998       -2.9610477781       17.8463197832
  H         2.9756957819       -2.2053133662       16.3459674022
  H        19.0487557459        2.1594408031       23.6927494281
  H        18.0315420369        3.0159866636       22.6970606738
  H        17.9891104103        1.3740915091       22.4725196163
  C        12.7519524118        7.1536456689       10.4099137513
  N        12.3087794132        8.4013003561       10.2109644451
  O        11.1102392763       10.0660648779       11.1922423050
  S        13.6853048189        6.3525900954        9.2224273574
  C        12.3833561586        9.0476819121        8.8906195893
  H        12.4377762201       10.1230660698        9.0877661480
  H        13.2207522029        8.8012895740        8.2303411963
  C        11.1619831997        8.7244456668        7.9209463124
  H        10.3473044220        9.2789435389        8.2718733430
  H        11.4593393899        8.9211318744        6.9178069404
  H        10.9117307186        7.6879989981        7.9889425527
  H        -2.2119191525       15.4285601372       16.3604312269
  C        -2.5746461998       14.4412894174       16.4188742742
  H        -3.6438540897       14.5325639536       16.5489881288
  C        -1.8753117216       13.8000845636       17.6050189053
  C        -2.3191502919       13.6183623277       15.1482230253
  C        -2.5945865245       14.2334192327       18.9000317787
  H        -1.8068113599       12.7512027124       17.5808683890
  H        -0.9179963576       14.1816622419       17.6440400287
  H        -1.2646577881       13.4972262984       14.9048616468
  H        -2.6468463123       12.5720817638       15.2836363340
  H        -2.9468701454       14.0199536544       14.3138979952
  C        -1.5003133971       14.0214406915       19.9623993033
  H        -3.3828280126       13.5226172584       19.1901690888
  H        -3.0733096044       15.2517461851       18.9174284227
  C        -2.0695620245       13.7374112822       21.3137783077
  H        -0.8019810206       13.2022030362       19.5953072916
  H        -0.9947212920       14.9413626022       19.9264045983
  C        -1.0984253108       13.0520197729       22.2703694844
  H        -3.0517328204       13.3084318175       21.3015680890
  H        -2.3580192302       14.6895663449       21.7018566105
  C         0.2903822003       13.7477074027       22.5019670370
  H        -1.5339324486       12.7126554389       23.1896754420
  H        -0.8760638438       12.1017373819       21.8224729553
  C         1.2789133813       12.9355862898       23.2522178212
  H         0.7164106310       14.0835945968       21.5425219718
  H         0.2371175003       14.7211977979       23.1109109801
  C         1.5579897863       11.5942821868       22.5975907930
  C         0.8284599123       12.1966186979       24.5056722716
  C         2.5203544094       13.7831087014       23.5418998579
  C         1.2372070528       10.4805886951       23.3605652675
  C         2.0031542988       11.1569259020       21.2326169420
  C         0.7747834323       10.8605859959       24.6199511173
  C         0.4308138202       12.8690116065       25.6618639129
  H         2.9142174507       14.1831229645       22.5749864699
  H         2.2370749811       14.6648731567       24.0899503508
  C         3.6845895301       13.0568485206       24.2399759127
  S         1.6181339205        8.9522393193       22.5890017822
  C         2.1049100656        9.7809669699       21.1339216635
  H         2.2152181626       11.9489846655       20.5773324588
  C         0.2924944973       10.2809685153       25.7640656572
  H         0.4727789359       13.8970899818       25.7149395140
  C         0.0009278987       12.2947435823       26.8342756955
  H         3.9647670355       12.1134967957       23.6173398902
  H         3.4913094953       12.6887609705       25.1463898769
  C         5.0026735037       13.8931049356       24.2936115993
  C         2.6635075357        9.0439728865       19.9544406225
  C        -0.0789645111       10.9909570580       26.9344882787
  H         0.2249067968        9.2478824701       25.7959461115
  C        -0.4337152935       12.7632052684       28.0767536566
  H         5.6814399128       13.2327092966       24.7901651999
  H         4.9809909121       14.8177714944       24.8807683035
  C         5.6011751914       14.3506329853       22.9373738435
  C         2.6006268381        7.7051107467       19.6218598431
  C         3.1607910250        9.9052260430       18.9015431659
  C        -0.4820293812       10.3284821720       28.2000462252
  C        -0.7600033764       11.6719529015       28.8769786607
  S        -0.6272101162       14.3137395675       28.7730185741
  H         6.2415704372       15.2682294747       23.0531069975
  H         4.9406174633       14.5984968486       22.1387637300
  C         6.3825087987       13.1997760120       22.2820073910
  N         2.1499002121        6.6709181298       20.4802486564
  C         2.9189278873        7.2188703063       18.3706948223
  C         3.5112067785        9.4538307510       17.5780748361
  H         3.2081912371       10.9698787624       19.0526020310
  C         0.6347229650        9.6245646233       28.9927301587
  C        -1.8732638179        9.4974603075       28.1546087629
  C        -1.1970231685       12.1391932068       30.0741036412
  C        -1.2003791223       13.5371840544       30.2037913500
  H         7.1656046210       12.8772242725       22.9197169743
  H         5.8564879246       12.3093203882       22.0223350366
  C         7.1530929482       13.5836397705       21.0955274909
  S         2.2457473120        5.2336612501       19.7016491737
  N         2.8368873907        5.8004120846       18.2670423415
  C         3.3978377641        7.9754491670       17.2999600899
  H         3.7885344744       10.1014845831       16.8418579315
  H         1.0761850596        8.7888095178       28.4366658594
  H         0.1305979161        9.2162682968       29.8232431795
  C         1.8317734894       10.5527143910       29.5525617991
  H        -1.6231160338        8.5708579149       27.6285007532
  H        -2.2404641402        9.2278690990       29.1319388515
  C        -3.0064069599       10.1656890940       27.3812349189
  H        -1.4995112941       11.4448804491       30.7993835057
  C        -1.3675536004       14.3835081400       31.4473263161
  H         7.9046741065       12.8124651595       21.0568384706
  H         7.7017113279       14.5291111084       21.2325555243
  C         6.3458704610       13.5595309866       19.9083847651
  C         3.5593541253        7.3751314384       16.0133960523
  H         2.2336841463       11.0832679751       28.6996611429
  H         1.5226366241       11.3498751926       30.2160382597
  C         2.9639554036        9.6738074855       30.2521430535
  H        -2.5951603650       10.4205902644       26.3675968444
  H        -3.4076322549       11.0863177433       27.9244596125
  C        -4.2368057523        9.2881629551       27.1553754133
  C        -1.4368704749       15.7531176790       31.5471199727
  C        -1.6609383445       13.6787047293       32.7115098372
  H         5.7395623691       12.5988022067       19.9017034810
  H         5.6159422579       14.4720328880       19.8343476645
  C         7.1066620184       13.7786793012       18.6012215048
  H         3.4515715334        6.3647234090       16.0486407323
  C         4.0045392405        7.7429051393       14.7993874106
  H         3.5257630501        9.0438483743       29.5478722519
  H         2.5880359796        9.0752717306       31.0752956159
  C         3.9977790024       10.6479827713       30.7841369645
  H        -3.9164836541        8.4992968298       26.4848759957
  H        -4.7649766281        8.8721503358       28.0208570343
  C        -5.2222305029        9.9755749033       26.3026633309
  N        -1.1563857408       16.6394460693       30.4562479938
  C        -1.8378721768       16.4272400834       32.7084177817
  C        -2.0559814408       14.3545788431       33.8440391375
  H        -1.5547732014       12.5906217983       32.6577459532
  H         7.3446369394       14.8106922627       18.3889350251
  H         7.9429976678       13.0777380320       18.4631569419
  H         6.4199004511       13.4043072381       17.8594105228
  S         4.2704434223        9.3401566927       14.3262664265
  C         3.9814609360        6.7560266564       13.7111870572
  H         3.9189250719       11.5254284912       30.1688050052
  H         3.6788963371       10.9828512864       31.8397204491
  C         5.3951588590       10.1309101927       30.9473464312
  H        -5.2341720334        9.3389829021       25.4107189039
  H        -4.8317570259       10.9513699805       25.9516992490
  C        -6.5659114085       10.1017094549       26.9965391076
  S        -1.2372769116       18.1556706627       31.0105865607
  N        -1.7730359789       17.8486138563       32.4827306835
  C        -2.2960579113       15.7946554702       33.8985281744
  H        -2.1284678333       13.7769531010       34.7252053484
  C         4.5271197879        8.7220081690       12.6488993771
  N         4.3585389559        7.3518122246       12.6071228561
  O         3.7592122334        5.5404697432       13.8821878752
  H         5.9477765229       10.8560089584       31.5265591689
  H         5.9184064833       10.1148868813       29.9482632793
  C         5.5271156883        8.8235774753       31.6124918686
  H        -6.9851619186        9.1334025090       27.2329532486
  H        -6.4271511379       10.5293407151       28.0371217968
  C        -7.5513489546       10.9465470730       26.2179180479
  C        -2.3821018601       16.6338248783       35.0643932580
  S         4.7152154922        9.6890073843       11.2129330756
  C         4.3443215544        6.6119575800       11.3780997314
  H         6.4482294467        8.8299365527       32.2238187062
  H         4.6546149870        8.6325216980       32.2761416126
  C         5.4655100597        7.6652412912       30.6778821185
  H        -7.0540264561       11.7779567299       25.6882786163
  H        -8.2885764505       11.4350294898       26.8207779581
  C        -8.3111329296       10.0526125283       25.1880690426
  H        -1.7083857900       17.4795235651       34.8955447577
  C        -2.8483432446       16.4988453397       36.2915996731
  H         5.1041169736        6.8096253456       10.5737262968
  H         4.6570299899        5.5618355671       11.5810356704
  C         2.9639112172        6.5684213402       10.7298732471
  H         5.7472092970        8.0343240214       29.7608512020
  H         4.5342862810        7.0454138454       30.6045324744
  C         6.5975415456        6.6722193340       30.9784554506
  H        -8.3584020021       10.5167835769       24.2264197832
  H        -7.6692890328        9.2574939754       25.0644879282
  C        -9.7373255305        9.6947512197       25.5575552587
  S        -3.5054022610       15.0300100278       36.9114219285
  C        -2.8201586824       17.6539963989       37.2164722385
  H         2.8594029253        5.8845445813        9.8471863708
  H         2.1889558948        6.2307066156       11.4002009263
  H         2.6307084139        7.5095817990       10.1998391109
  H         6.7567628762        6.4867680139       32.0002588724
  H         7.4474387502        7.1453641325       30.5109030873
  H         6.3745617535        5.7459899301       30.4932292995
  H        -9.7121669998        8.7723459977       26.2271012789
  H       -10.4395307353        9.6164495260       24.7117845068
  H       -10.0504699536       10.4879328993       26.1734226364
  C        -3.7181249458       15.8740738016       38.4540568001
  N        -3.4138255288       17.2297060559       38.3040277294
  O        -2.5523689172       18.8084232226       36.9104600105
  S        -4.4460929150       15.2789096919       39.9289276592
  C        -3.4650679871       18.1032951704       39.5156170500
  H        -3.5037461672       19.2209900600       39.2686339607
  H        -4.2992125429       17.9878253912       40.2046324557
  C        -2.1750678367       17.8798761120       40.4023694336
  H        -1.8692420497       16.8866674616       40.6377137733
  H        -1.2620506816       18.4518564062       40.0696080278
  H        -2.3748921764       18.2614043211       41.4029242681
