352
 i =    60400, time =    60400.000, E =        25.0315843232
  H        10.1180386570        4.8512206626       31.4444411374
  C        10.3035702735        5.8631052270       31.8158401042
  H         9.3645330957        6.4482187381       31.5958776251
  C        11.4567076120        6.4335325027       30.9875890169
  C        10.5254996398        5.8159162747       33.3047316897
  C        11.6208173579        5.6460579560       29.6800518409
  H        11.3849209651        7.4579191624       30.7979806226
  H        12.3840537286        6.4010241764       31.5883709904
  H         9.5956401814        6.1107085914       33.7124094663
  H        10.6701289810        4.7509204455       33.4942713419
  H        11.2309623671        6.5330491074       33.6613178191
  C        10.3928419210        5.7186942614       28.7144588760
  H        11.8719545464        4.5877895201       29.9248747190
  H        12.4326240451        6.0783532946       29.1588753529
  C        10.8158570394        5.5465617275       27.2106883731
  H         9.6957655004        4.9025423889       28.9689275446
  H         9.7980663194        6.6399855592       28.7735394043
  C         9.6810558422        4.8293902673       26.3987232272
  H        11.7581540942        4.9787492066       27.1541436687
  H        11.0530448229        6.5008516650       26.7611701282
  C         8.5927608607        5.7911174861       26.0055527167
  H        10.1842983405        4.2618083203       25.6137572676
  H         9.2530339085        4.0423219338       27.0271651814
  C         7.4005469748        5.0924917067       25.3294008581
  H         8.2535302763        6.4169288611       26.8367966881
  H         8.9400761629        6.4924929101       25.2518206169
  C         6.9752314994        3.7313086084       26.0264455749
  C         7.7517225654        4.3873527296       24.1460317859
  C         6.2141068733        6.0415358310       24.8723291309
  C         7.1064402161        2.5956841117       25.1985573659
  C         6.5359395338        3.3468564749       27.3677810174
  C         7.6152425407        2.9948925164       23.9953104777
  C         8.2873021478        5.0165598862       23.0379350918
  H         5.8504956487        5.7061167592       23.8774638056
  H         6.7575553947        7.0087035761       24.6653544096
  C         5.1642254340        6.4049050654       25.9250589150
  S         6.6357617702        1.1110682835       25.9955993792
  C         6.3407105565        2.0087517533       27.4916649873
  H         6.5129798781        4.0718605807       28.1698633062
  C         8.0911058912        2.3480085711       22.8456086102
  H         8.3475410292        6.0927085005       23.0077571246
  C         8.6264296415        4.2805680905       21.8918652065
  H         5.0652178462        5.7901528781       26.8287215588
  H         5.3223492815        7.3932653512       26.3201387365
  C         3.7285666670        6.3310270833       25.4010092288
  C         5.8786284217        1.3940944428       28.8338222805
  C         8.4993907456        2.9610253488       21.7043233177
  H         7.9041180746        1.2555295816       22.7258766830
  C         8.9949860299        4.6752353348       20.6193102099
  H         3.6426899337        5.4488811315       24.8018703528
  H         3.5614891097        7.1565216267       24.7469544112
  C         2.6806027449        6.4766696009       26.4520447096
  C         5.6653527335        0.0134799313       29.0051963258
  C         5.6300704254        2.2129367641       30.0433091059
  C         8.8115744460        2.2309777102       20.5257899144
  C         9.1869558166        3.5850712912       19.7815809299
  S         9.2869574417        6.2070642868       19.7895592594
  H         1.7603544299        6.9915197218       26.1306426610
  H         3.1863183048        7.1586320699       27.1433041432
  C         2.2543685052        5.2180420042       27.1412192384
  N         5.7809196786       -0.9508203501       27.9199594419
  C         5.3847222653       -0.5930335913       30.2340477073
  C         5.3621804871        1.6555033274       31.2656224380
  H         5.6927468319        3.3166021260       29.9999218805
  C         7.6278499990        1.4911368725       19.7889140061
  C         9.9781532263        1.2923276150       20.6375730681
  C         9.5749284239        3.9012429198       18.4938303968
  C         9.6599802902        5.2467987054       18.3272008278
  H         1.6215244243        4.6910707121       26.4859242672
  H         3.1324274551        4.6356767667       27.2823680139
  C         1.4135094060        5.4982594537       28.3476432420
  S         5.7594612199       -2.4441206331       28.6018315131
  N         5.4033146551       -1.9878466404       30.1878639631
  C         5.1493403840        0.1762787033       31.3910834399
  H         5.0891939408        2.3410617584       32.1044219211
  H         7.4287550924        0.5404333644       20.2113888123
  H         7.9640223320        1.3202060256       18.7756242354
  C         6.3057142870        2.3710860973       19.6258316589
  H        10.0292813397        0.8392582747       19.6144339988
  H         9.7700200240        0.4689453399       21.3415231123
  C        11.2670001596        1.9711175664       21.0831261400
  H         9.5706317011        3.1277236233       17.7597046846
  C        10.0135912328        5.9409615913       17.0649800112
  H         0.6765330822        4.6689353541       28.6040090708
  H         0.9114028831        6.4097395578       28.1853839234
  C         2.1881479267        5.7921579476       29.6326531009
  C         4.7941724825       -0.5116668690       32.6451841156
  H         6.5239793645        3.2633738918       19.0711067409
  H         5.9164988129        2.7498758028       20.5947339027
  C         5.3096606620        1.4568395018       18.8988063581
  H        11.0861246665        2.6700232031       21.9121530009
  H        11.6849086682        2.6205669715       20.2731393033
  C        12.4132842074        0.9641680745       21.4133255912
  C        10.0885397080        7.3855013551       16.8646390037
  C        10.1709257597        5.1648090313       15.8138880693
  H         2.9411890547        5.0718264223       29.9173210470
  H         2.8094833019        6.7037289465       29.4570633673
  C         1.1866512616        6.0432375981       30.7423143273
  H         4.7031847542       -1.6312439364       32.5313447758
  C         4.3868416936       -0.0588753375       33.8780913984
  H         5.0569214311        0.6469314064       19.4532354877
  H         5.8900672207        1.0289510562       18.1028238179
  C         4.0223964591        2.2237193153       18.3214185076
  H        12.0511166975        0.2983453420       22.1873531218
  H        12.7047617336        0.3834249800       20.5519698812
  C        13.8562958557        1.5246793376       21.8130865957
  N         9.8536718408        8.3386264518       17.8902225715
  C        10.3348493162        8.0042194778       15.6317674175
  C        10.3816761190        5.7745479583       14.5633805285
  H        10.0613535780        4.0775986414       15.8892268344
  H         0.5863338488        5.1891756257       30.8681919085
  H         1.7278224792        6.3486172209       31.6599702505
  H         0.4933211907        6.7827796245       30.4399495393
  S         4.1111798548        1.5597432819       34.2761500869
  C         4.4559854026       -1.0134147493       34.9982952017
  H         3.6715371889        3.0263334163       18.9258580833
  H         4.2095694023        2.5278798807       17.3463754231
  C         2.8288672698        1.3084514045       18.2286684059
  H        14.2218551685        2.3347111930       21.0859045024
  H        14.5892832387        0.6642189045       21.7521680403
  C        13.9834507877        2.1884942876       23.1744379491
  S         9.7071936207        9.8160433286       17.2015854220
  N        10.2262174037        9.4377232604       15.6609653043
  C        10.6499150637        7.2753643420       14.4446317602
  H        10.6551082200        5.2057392753       13.6975720535
  C         4.0437816885        0.9471195876       35.9892227134
  N         4.2215212285       -0.4056542265       36.1622443021
  O         4.7256589364       -2.1889520628       34.8648295977
  H         1.9665769499        1.7858039574       17.7893272731
  H         2.5522047085        0.9144120143       19.1916439888
  C         3.0720955860        0.1875285011       17.2290977378
  H        13.1583465425        3.0185627799       23.1867983524
  H        13.9313298448        1.5212703125       23.9957270830
  C        15.2389416176        3.0198292800       23.2521453769
  C        10.8297344360        8.0751040130       13.2647471085
  S         3.5831239389        2.0175562993       37.4067851799
  C         4.4549685870       -0.9389252172       37.5434556247
  H         2.8100392734        0.6101750945       16.2479438750
  H         4.0747311377       -0.1793464575       17.2105595092
  C         2.2387609424       -0.9955571902       17.4658093558
  H        15.0353529129        3.8260139538       23.9272325249
  H        15.6195935858        3.3494244144       22.3385493459
  C        16.4674289315        2.2898190976       23.8159091663
  H        10.4762365798        9.0637770202       13.2484871533
  C        11.3945344397        7.7700460478       12.0623421503
  H         3.7314957083       -0.5230465345       38.1956513423
  H         4.1549242623       -2.0138223836       37.4623783635
  C         5.9070139860       -0.7565610935       37.9953030567
  H         2.6916512976       -1.8003507737       16.8875497482
  H         1.2739813752       -0.7256061645       17.0918794219
  C         2.2057876945       -1.5703512451       18.9066583547
  H        16.8099993121        2.6499945103       24.8303692326
  H        16.0641018752        1.2840671212       24.0951114999
  C        17.6135129135        2.1631526011       22.8974974689
  S        12.0239599942        6.3063038810       11.5467168188
  C        11.5086786107        8.8385728041       11.0290036287
  H         6.0386570774        0.2829208524       38.2362689742
  H         6.1417830640       -1.3442689412       38.9064148807
  H         6.6246976442       -1.1504487828       37.3043477326
  H         1.2698005915       -1.3007785098       19.3348230054
  H         3.0499965728       -1.2630179419       19.5572743886
  H         2.0747010914       -2.6794578702       18.8583777288
  H        17.5172661910        1.2496346465       22.3700241244
  H        18.5641715828        2.1546866761       23.4645064335
  H        17.7221252651        2.9259639102       22.1371343100
  C        12.5270358677        7.1060320425       10.0471089443
  N        12.1993575522        8.3910416252        9.9305932668
  O        11.0297959729        9.9657635334       11.1792591794
  S        13.3063634994        6.3719247422        8.6483942460
  C        12.4287741161        9.2399943217        8.7293367108
  H        12.4286781741       10.2946633505        9.0277010580
  H        13.4308466330        9.0536628184        8.3368521232
  C        11.2851119650        9.0863086816        7.7966468059
  H        10.2966946602        9.4017568692        8.2246642620
  H        11.3190363604        9.7362533757        6.9188747890
  H        11.2094460853        8.0527528219        7.5670239191
  H        -4.1511239998       13.1113604878       16.4799818639
  C        -3.2572687121       13.6828038514       16.6828975924
  H        -2.5294771497       12.9445555195       16.9836804997
  C        -3.3824686539       14.7254540237       17.7846360259
  C        -2.8086608365       14.1816907419       15.3265698263
  C        -3.6960799146       14.1552264044       19.2184251603
  H        -2.4141477868       15.3544658166       17.9078967157
  H        -4.2382383943       15.3716873963       17.5699623164
  H        -3.5327333480       14.9154782363       14.9728633684
  H        -1.8409211692       14.6063209804       15.5562693024
  H        -2.7471630473       13.3644553854       14.5022985821
  C        -2.4161392243       13.5755896409       19.9582951133
  H        -4.3892930714       13.3320901530       19.1019123068
  H        -4.0845188431       14.9083683920       19.9487466065
  C        -2.6889837388       13.0884661342       21.3723149294
  H        -1.8965911910       12.7587257097       19.3779702500
  H        -1.6833902640       14.3288438776       20.1548235278
  C        -1.5212025504       12.4898540688       21.9614363647
  H        -3.6545171824       12.5723683264       21.4878841569
  H        -3.0462924599       13.9988336810       21.8827355407
  C        -0.3596751974       13.5061405123       22.3472386441
  H        -1.7400292936       12.1804478766       22.9567715818
  H        -1.1165863972       11.6815979573       21.3575218275
  C         0.6614622359       12.9409985660       23.3422756504
  H         0.1808572509       13.7830514834       21.4299488606
  H        -0.6858245054       14.4419612931       22.7082681486
  C         1.1329826675       11.6018760091       22.8231274103
  C         0.1766295038       12.2555850957       24.6012446018
  C         1.8837498625       13.9134588185       23.3967163631
  C         0.8714402564       10.5102351012       23.6189236854
  C         1.6321010372       11.1958582409       21.5988013255
  C         0.2901590547       10.8917556951       24.7834696394
  C        -0.2095155806       12.9895362748       25.7329625684
  H         1.9280027287       14.3953832867       22.4197765075
  H         1.5394519809       14.7066302620       24.0650596809
  C         3.1672641243       13.2952598218       23.9898438705
  S         1.3404774910        8.9686114298       22.8839795628
  C         1.8326105084        9.8269330320       21.4971756631
  H         1.9383847923       12.0176157909       20.9436599993
  C        -0.1424928199       10.3586502779       25.9563777829
  H        -0.2548247266       14.0563759133       25.5509254510
  C        -0.5375325445       12.4334339394       26.9482990459
  H         3.4263237674       12.4137138342       23.3246422504
  H         2.8467311493       12.9249852907       24.9929688087
  C         4.3495025342       14.1488198412       24.0249291297
  C         2.3655715590        9.1276556654       20.2473206722
  C        -0.5342098463       11.0988272011       27.0675467520
  H        -0.1167124926        9.2744623045       26.0027500614
  C        -1.0361721372       12.8081648666       28.1277526051
  H         5.0709198556       13.6968190185       24.6249297475
  H         4.2502379037       15.0759130397       24.5537556237
  C         4.9823841311       14.2032142288       22.6328100924
  C         2.2647795385        7.7391413947       19.9168383430
  C         2.8612700869       10.0352624505       19.1013985482
  C        -0.9172905861       10.4198296314       28.3460700742
  C        -1.2421686047       11.7219514497       28.9840463134
  S        -1.4144430751       14.2924094541       28.9159797078
  H         5.6014038497       15.0580146220       22.5427629943
  H         4.2529924172       14.2225050811       21.8734451865
  C         6.0092488421       13.1081916867       22.2898209646
  N         1.6862344301        6.8363313979       20.7364580447
  C         2.4719074692        7.2804679256       18.6478783505
  C         3.1369864984        9.5305709774       17.8294991338
  H         3.0802129340       11.0662742203       19.3608429732
  C         0.1202335134        9.6592773665       29.1822365885
  C        -2.2220232332        9.5238881485       28.1489539703
  C        -1.7705720525       12.0832781427       30.2530858814
  C        -1.7803847108       13.4693798340       30.3769670675
  H         6.6794387618       13.1954060036       23.0815314657
  H         5.4754557308       12.1376908657       22.1847444221
  C         6.9077464471       13.2785159959       20.9843556266
  S         1.9279908716        5.3902571968       20.0160578349
  N         2.3126021949        5.8744174337       18.4942257149
  C         2.9515648878        8.1029020182       17.5592821472
  H         3.5829097450       10.2292966147       17.1623978530
  H         0.3240552459        8.6892172287       28.7414718136
  H        -0.4113238494        9.4218972871       30.0762606312
  C         1.3324427813       10.5664444412       29.4999484062
  H        -2.0931221007        8.6255404169       27.5696143128
  H        -2.4629347959        9.0613204611       29.1148814678
  C        -3.3927019300       10.3380265160       27.6985357678
  H        -2.0448191900       11.2926442389       31.0008846789
  C        -1.9650075327       14.1767729526       31.6650873992
  H         7.6719786841       12.5118771980       21.0529658068
  H         7.3172179411       14.2189320252       20.9434065981
  C         6.1379240306       12.9801274028       19.6714314085
  C         3.2320098055        7.5556196343       16.3138045663
  H         1.6503309791       11.0294943310       28.6194607246
  H         1.1709459976       11.4290283412       30.2118191522
  C         2.3942206397        9.6213612760       30.0497330235
  H        -3.1732890086       10.8309355321       26.7462505643
  H        -3.7764505079       11.1894856389       28.3152462090
  C        -4.5498554759        9.4162132140       27.3363169569
  C        -1.7792199378       15.5784871496       31.9131982660
  C        -2.2021078352       13.4059291475       32.8674748986
  H         5.8650563357       11.9192177209       19.7098956723
  H         5.1894956910       13.5102754864       19.7542743983
  C         7.0505857937       13.4148374133       18.4253784389
  H         3.3193768307        6.5260981584       16.2836516470
  C         3.6088899384        7.9811302868       15.0575218438
  H         2.7349062523        9.1670184334       29.1158308738
  H         1.7960456821        8.9283215927       30.6806244069
  C         3.5486287614       10.1302999684       30.9341418198
  H        -4.1537513133        8.7302062868       26.6067896487
  H        -4.7857596700        8.8167660216       28.1606483257
  C        -5.6857927300       10.3538568070       26.8432146046
  N        -1.4056350909       16.5176131274       30.9550931755
  C        -2.1595224329       16.1799275301       33.1159763907
  C        -2.3129702329       13.9788190112       34.1281229565
  H        -2.3030450729       12.3453981944       32.6871108402
  H         8.0045659339       12.9152982609       18.3400113682
  H         6.5478389448       13.0707445889       17.4871355671
  H         7.1745335867       14.5161788674       18.4010195827
  S         3.7471137907        9.6005309945       14.5545343541
  C         3.7578143487        7.0001068976       13.9597278289
  H         3.9762122791       11.1066847500       30.6269866498
  H         3.0987108968       10.3501693323       31.8909670175
  C         4.6943630506        9.1504890848       31.1308765585
  H        -5.2714537419       10.9615972228       26.0611549565
  H        -5.9084306010       11.0535175886       27.6033013942
  C        -6.8973585265        9.6020914997       26.4462767691
  S        -1.8256900505       17.9800378658       31.4907248016
  N        -2.2245950290       17.6019002456       32.9603557593
  C        -2.3814668247       15.4124921814       34.2883855586
  H        -2.3988717282       13.3011956232       34.9596297383
  C         3.9336602765        8.9340739011       12.8915475176
  N         3.8962740088        7.5832569729       12.7869647383
  O         3.6844180994        5.7853092866       14.0642886189
  H         5.4329932622        9.8742356910       31.6416642582
  H         5.0560116864        8.7651591640       30.1993060266
  C         4.2561438301        7.9254168789       31.9562405882
  H        -6.5169390274        8.7458635809       25.7541997654
  H        -7.3837761902        9.0285623664       27.2245913548
  C        -7.8170908540       10.5558369429       25.7272961814
  C        -2.6189235298       16.1363313558       35.5189235537
  S         4.2406132037        9.9722259063       11.4750890036
  C         3.8536143771        6.9095412575       11.4291024759
  H         3.6390830552        8.2760138335       32.8212645481
  H         3.5399728189        7.3932481931       31.3784764130
  C         5.4608349444        7.0650286070       32.3281485144
  H        -7.2732815236       11.2078547227       25.0266585214
  H        -8.2559794536       11.2778114018       26.4402983211
  C        -8.9454517265        9.9062030421       25.0544326967
  H        -2.1615856382       17.0825570068       35.5253465798
  C        -3.0826485759       15.7918334972       36.7804094713
  H         4.5729279835        7.3999918388       10.7790372677
  H         4.2076412924        5.9102111155       11.5279400810
  C         2.4137326547        6.9218689324       10.8391249281
  H         5.2013207249        6.2450711291       32.9459260336
  H         6.0755711789        7.6745344580       32.9350476520
  C         6.1804179899        6.5245623319       31.0609048941
  H        -9.2051811392       10.5439663262       24.2127075944
  H        -8.7732159644        8.8619233525       24.7361013443
  C       -10.1758125344        9.8178383604       26.0686136115
  S        -3.7843562137       14.3381383671       37.1344913092
  C        -3.2173252885       16.8596837798       37.8128088389
  H         1.6362206680        7.5522235642       11.2926583358
  H         2.2275723964        7.1477776465        9.7949812107
  H         2.1703429799        5.8758468038       10.8242806382
  H         5.4000637499        5.9463878729       30.5095743628
  H         6.8818205448        5.8058188966       31.4335577515
  H         6.7288296333        7.1714439331       30.2771025727
  H       -11.0267915249        9.3950951433       25.5855316269
  H       -10.5343754225       10.8148519530       26.5294548914
  H       -10.0218656652        9.0698441011       26.8416288994
  C        -4.0380748845       14.9873035073       38.7762081446
  N        -3.8213627465       16.3397839024       38.8354827124
  O        -2.8195584658       18.0039580117       37.6108892179
  S        -4.7985661031       14.1509116210       40.0440920093
  C        -3.9367351769       17.1381424968       40.0590755803
  H        -4.2642275045       18.1568897027       39.7857050550
  H        -4.7491240184       16.8149587505       40.6883221573
  C        -2.6510138318       16.9586943425       40.7881464244
  H        -2.8387966425       17.0114838876       41.8430677216
  H        -2.2303156767       15.9641700451       40.5850536373
  H        -1.9977958739       17.7545883160       40.5821781349
