352
 i =    29800, time =    29800.000, E =        24.7620158421
  H        12.2121189242        7.5203544313       32.2934190602
  C        12.0245350108        6.3980136497       32.3597599733
  H        13.0159655630        6.0056489975       32.2282618087
  C        11.0609799506        5.8046162334       31.3735133185
  C        11.4939491388        6.1343261243       33.7262654243
  C        11.3460553067        6.2504486889       29.9551038301
  H        10.8655398115        4.7502619512       31.4768961664
  H         9.9954811097        6.1026213669       31.4892421069
  H        12.3255850874        5.6108200793       34.2590840865
  H        11.1742690537        6.9948486915       34.2771008392
  H        10.6441612140        5.3916186610       33.8425426179
  C        10.6896851827        5.3163030129       28.8962880112
  H        12.4282047355        6.3909961151       29.8334757627
  H        10.9236872379        7.2747769832       29.9190821142
  C        10.8525475140        5.8108687585       27.3919268928
  H        11.1487988726        4.3047428317       29.0139397394
  H         9.6577052435        5.3532777953       29.1603090972
  C         9.8421810204        5.0819782548       26.4440044215
  H        11.9226661668        5.7837237279       27.1150605435
  H        10.6295355706        6.8999647437       27.4226804195
  C         8.6014852275        5.8855012467       26.2483646072
  H        10.3830821664        4.9704410671       25.4995083004
  H         9.6094222372        4.1314471016       26.9303240674
  C         7.5095685493        5.1484254537       25.5001202072
  H         8.3188459709        6.2551406926       27.2155505694
  H         8.7163811107        6.8405817243       25.6677701122
  C         7.1199374977        3.8001896621       26.1792707584
  C         7.8787683412        4.4536159844       24.3057083247
  C         6.2545714589        6.0312863760       25.3887300900
  C         7.3560804914        2.7057645682       25.4039085265
  C         6.5628293114        3.4020331428       27.4033144908
  C         7.8662196498        3.1160893464       24.1440300763
  C         8.3239387321        5.1709620190       23.1805172130
  H         6.3745853568        6.7070595682       24.5413600049
  H         6.2308621711        6.5580480897       26.3522588086
  C         4.9746267346        5.3152171706       24.9465262489
  S         6.8194600300        1.2185596191       26.0881436041
  C         6.4441332049        2.0288914604       27.5639148450
  H         6.1831399754        4.1938805834       28.0437185075
  C         8.2810754498        2.5451403670       22.9726709309
  H         8.2209215788        6.2512210095       23.3161019877
  C         8.7222538225        4.6081727818       21.9412322870
  H         5.0571119859        4.9425948092       23.9241887745
  H         4.7103263554        4.5317645576       25.6094764328
  C         3.7160337237        6.2016385548       24.9514971021
  C         5.9684971138        1.3705807627       28.7482882657
  C         8.7489837083        3.2775206663       21.8852919964
  H         8.2533904792        1.4763408480       22.8695658692
  C         9.0296574368        5.0394061989       20.6710823605
  H         2.8426571039        5.7579421708       24.3629189403
  H         3.8305761706        7.2756389728       24.5308101133
  C         3.1459019639        6.3686534341       26.3914521923
  C         5.8759790898       -0.0280113244       29.0046878424
  C         5.6241683358        2.2132723455       29.8958649325
  C         9.0469324312        2.6181209230       20.5759295795
  C         9.2848829969        3.9351952100       19.8374514077
  S         9.2810399751        6.5166523266       19.9300010619
  H         2.4054623919        7.1817672399       26.4530823120
  H         4.0378996215        6.6219870884       27.0570777219
  C         2.3512934740        5.1698443203       26.8129431586
  N         6.2352259825       -1.0527411907       28.0874892694
  C         5.5783265270       -0.5026368559       30.2856621953
  C         5.3072068089        1.7246823284       31.1347204294
  H         5.6459525036        3.2916510450       29.9097227253
  C         7.6989263314        1.9162306605       20.0731950496
  C        10.2295007329        1.6924313782       20.6824279713
  C         9.6549476041        4.3079662072       18.5045878074
  C         9.7212993211        5.6786304617       18.4230494554
  H         1.6104293717        5.0119909437       26.0486977275
  H         2.9330914064        4.3513499186       26.7698495144
  C         1.8072984219        5.3691085122       28.1999968888
  S         6.1321281721       -2.5265673898       28.7936348543
  N         5.6925821903       -1.9179905851       30.3309731725
  C         5.3670202806        0.2994689696       31.4091390589
  H         5.0281970047        2.3770919854       31.9183235849
  H         7.1442683293        1.2769376085       20.8245183243
  H         8.0948830287        1.2500859241       19.3203037279
  C         6.6718789013        2.8593238615       19.4072403620
  H        10.6048765925        1.2481403605       19.7852588655
  H        10.1728351971        0.7668049057       21.2949001417
  C        11.4948279043        2.4513980065       21.2012760364
  H         9.8596088645        3.5366819171       17.8096266428
  C         9.9781708855        6.4313178003       17.2084577512
  H         1.3406335395        4.4286747854       28.5027753164
  H         1.1279340887        6.2018744299       28.1012681142
  C         2.7976182764        5.8873106128       29.2354086351
  C         5.0215711291       -0.3624875894       32.7012908760
  H         7.1941866550        3.2896867397       18.5251734950
  H         6.3115832188        3.6211345179       20.0640759628
  C         5.5821537377        1.8614924301       18.8022364766
  H        11.4154506951        2.6830381980       22.2220207726
  H        11.7987724821        3.3370458539       20.6643040763
  C        12.7639110226        1.5925466350       21.1730310280
  C         9.8939848218        7.8668432751       16.9758957573
  C        10.1733512046        5.6817766368       15.9569524790
  H         3.7283766920        5.4938571449       29.0668832318
  H         2.8866815086        6.9233853992       29.1051776238
  C         2.4327310649        5.6587459868       30.7072285993
  H         4.9970782661       -1.4404281109       32.5798523721
  C         4.8252897946        0.1162751637       33.9578410762
  H         4.9212609632        1.6114949805       19.6665387676
  H         6.0244331803        0.9589239485       18.3248144128
  C         4.6662511337        2.5881606905       17.7804365481
  H        12.7458188580        0.8469038406       21.9771749350
  H        12.6950652171        0.9789036226       20.3105544188
  C        14.0949958446        2.3406587088       21.1087957692
  N         9.6700714372        8.8717339732       17.9891827956
  C        10.1028408280        8.4487859014       15.7234161981
  C        10.3441634463        6.2388123815       14.6910800342
  H        10.1183212790        4.5713715510       16.0429090287
  H         3.1943674116        6.2493122439       31.1894961817
  H         1.4445171535        6.0566468091       30.9633841297
  H         2.4479694182        4.5846933957       30.8022172417
  S         4.6597638329        1.7530008770       34.3857004855
  C         4.6405144446       -0.8868341550       34.9950246429
  H         4.4328163655        3.5438037181       18.2149541459
  H         5.2035316694        2.7346575106       16.8602313593
  C         3.2678094454        2.0283581129       17.5082978615
  H        14.0387306684        3.2275162672       20.5335690935
  H        14.8376916223        1.6208052300       20.6437456225
  C        14.7266736898        2.9236129989       22.4739006048
  S         9.6667303884       10.3327788207       17.2696383552
  N        10.0406361621        9.8670831344       15.7714276641
  C        10.3853854903        7.7509275739       14.5501905928
  H        10.4728075540        5.5771917583       13.8602873995
  C         4.2587201662        1.0583483599       35.9614536968
  N         4.2379538454       -0.2207039395       36.0970533398
  O         4.8247211364       -2.0807803105       34.8319207090
  H         2.6288050279        2.7527835719       16.8236845513
  H         2.6245855680        1.8918615801       18.3595230865
  C         3.4065640685        0.6979029713       16.7129355994
  H        15.5187062802        3.5457147496       22.0813057812
  H        14.0204963476        3.4137055497       23.1397736490
  C        15.4520635028        1.9347868508       23.4078686660
  C        10.6936900060        8.5702344330       13.4032383228
  S         3.8877181313        2.0152995226       37.3902867497
  C         4.0978837360       -0.8970983992       37.3794991649
  H         2.8578219783        0.6757766142       15.8235662455
  H         4.4239273824        0.5940570918       16.4819106949
  C         3.0225796705       -0.5644024442       17.5293546580
  H        15.4149510345        0.9459556883       22.9042907737
  H        14.8450631773        1.9013128260       24.3290821674
  C        16.9094800605        2.4080058295       23.6484295945
  H        10.3781672118        9.5361397776       13.4131097886
  C        11.3168276619        8.1956186626       12.2831166999
  H         3.3472139021       -0.4442925058       38.0358218569
  H         3.6782214021       -1.8523844564       37.0009853536
  C         5.4428690669       -1.0303752685       38.0497457920
  H         3.7304412457       -0.7951556641       18.3048805820
  H         3.2535371932       -1.3596514257       16.7902738832
  C         1.6453929045       -0.5792171909       18.1330454814
  H        16.7439497990        3.4913057291       23.8264342255
  H        17.2762637180        1.9325067144       24.5907125781
  C        17.8424042204        2.0680685464       22.5190994125
  S        11.9495718531        6.6533681948       11.8396784560
  C        11.4457914651        9.2758134409       11.2803864941
  H         6.2428088111       -0.9099730408       37.3788360138
  H         5.5553547347       -0.3149143300       38.8672991840
  H         5.5610988156       -1.9888721901       38.4974821076
  H         1.2019119170       -1.5660919567       18.0826586071
  H         1.1689220672        0.1327006210       17.4518628303
  H         1.5317350546       -0.3029613029       19.2053396505
  H        18.8415126615        2.1113298823       22.9737076972
  H        17.7918319838        2.8056657510       21.7285676379
  H        17.6306797317        1.0654237109       22.1290846131
  C        12.3210399009        7.3984585171       10.2970928195
  N        12.0498775380        8.6958708236       10.2384861338
  O        10.9404829526       10.3709175267       11.4543739507
  S        12.7020104543        6.5616014668        8.8205071346
  C        12.0528917558        9.3681296148        9.0041521354
  H        12.1358625524       10.4521098521        9.1430420353
  H        12.9002809168        9.1440896637        8.4022079513
  C        10.7176212234        9.2066613638        8.2964617363
  H        10.1097601620        8.4004439929        8.6166036550
  H        10.1976391623       10.1002377347        8.4589830908
  H        10.8263492416        9.1301257046        7.2196334332
  H        -0.8475568142       13.4991912691       16.6583157138
  C        -1.7968523211       14.0143430558       16.5044496070
  H        -1.7804112837       15.1375396072       16.6846474320
  C        -2.6664122211       13.2374728610       17.4330081451
  C        -2.0309119426       13.6385352215       15.0479203739
  C        -2.4589280965       13.8638358200       18.8588448337
  H        -3.6946245715       13.4050002469       17.0235710668
  H        -2.4909181337       12.1480176891       17.4866000270
  H        -1.7423743572       14.4539553580       14.3712847240
  H        -1.5693327562       12.6541225975       14.7913682201
  H        -3.1422125311       13.5964999142       14.8518631422
  C        -2.4966456091       12.9002935073       19.9478196750
  H        -3.3007473849       14.5825121492       19.1094378388
  H        -1.5937580679       14.5032469467       19.0386810897
  C        -2.3565453418       13.4603673602       21.3389655121
  H        -3.3463326254       12.2468054787       19.8380170986
  H        -1.7306976041       12.1186013072       19.7487090334
  C        -1.2175366137       12.7772144872       22.1394376478
  H        -3.2445992692       13.2512002960       21.8908246715
  H        -2.1473967878       14.5554644169       21.2208041583
  C        -0.1065427411       13.7013079943       22.4565083793
  H        -1.6412842628       12.3395669338       23.0145038207
  H        -0.8631930762       11.9969552888       21.5131869258
  C         0.9234433139       12.9871910414       23.2845308111
  H         0.3747756500       14.2789880589       21.6417286490
  H        -0.5453704259       14.5293928574       23.0970895633
  C         1.3315863107       11.6772096519       22.5782241749
  C         0.5074281165       12.2510147267       24.4799490308
  C         2.1879010938       13.8565657326       23.5683444163
  C         1.2185380009       10.5635371086       23.4269180261
  C         1.8381727075       11.2768526963       21.2743647107
  C         0.7622333641       10.9144556019       24.6418720804
  C         0.0037898359       12.8605130781       25.6339621659
  H         2.4925545788       14.2434321399       22.5280377842
  H         1.9123332637       14.7432074854       24.1157152289
  C         3.4630450735       13.3378986437       24.2376460283
  S         1.6331249402        9.0515178066       22.7054167728
  C         1.9508042868        9.9155850899       21.2258460691
  H         2.0290240094       12.0748135742       20.5135089585
  C         0.3663881470       10.3042744351       25.7952200007
  H        -0.0952064056       13.9373165944       25.5471662000
  C        -0.2230186818       12.2943893245       26.8524135388
  H         3.7914485033       12.4782538999       23.6806951897
  H         3.1087527651       12.8175425282       25.2169451548
  C         4.6355770781       14.3127415123       24.3015589663
  C         2.3422090409        9.2291757521       19.9581787576
  C        -0.0770918573       11.0081640777       26.9819562758
  H         0.5049462875        9.2858254028       25.9757916248
  C        -0.5689346586       12.6768479279       28.1152056673
  H         5.4106759670       13.9312940100       24.9402648294
  H         4.3589276154       15.2170771311       24.8085630094
  C         5.2950697768       14.5442083933       22.9389673652
  C         2.3493134696        7.8089218857       19.6924548144
  C         2.8667343250        9.9763275124       18.7748915294
  C        -0.3910554549       10.2572665568       28.2530325577
  C        -0.6870504214       11.6026264824       28.9496346168
  S        -0.8445177564       14.2199178735       28.8819960686
  H         6.2549785508       14.9019626027       23.2418712099
  H         4.6793367777       15.2187846847       22.3918232490
  C         5.5633367982       13.3328341474       22.1164557767
  N         2.0204148618        6.9162771540       20.6877781404
  C         2.7292665657        7.1978672366       18.5059656029
  C         3.1310081043        9.4136755456       17.5172838306
  H         2.8749435192       11.0458009673       18.8423926091
  C         0.8867330407        9.4430475709       28.7933590544
  C        -1.5840413651        9.3009239205       28.0225519323
  C        -0.9549446538       12.0646810606       30.2177941751
  C        -1.1869291709       13.4138687767       30.3422939197
  H         5.6756042538       12.4256004007       22.7620284572
  H         4.6591421966       13.1491052854       21.4783474956
  C         6.8669479098       13.5119891845       21.2778194176
  S         2.3497162114        5.4500686465       20.1575204138
  N         2.8944304650        5.7913193959       18.6945552969
  C         3.0577768309        7.9275666386       17.3263116190
  H         3.4745045407       10.0451669928       16.7454302068
  H         1.2667719461        8.8943844319       27.9596570500
  H         0.6084152277        8.7588626887       29.6427108032
  C         1.9742198775       10.4103679219       29.3254674786
  H        -1.2919239646        8.5411228801       27.3617849028
  H        -1.7549760752        8.8433778823       28.9876110947
  C        -2.8370521670        9.9460584365       27.4339523116
  H        -0.8942039005       11.2790627065       31.0521222392
  C        -1.4799879703       14.1798154220       31.5592381128
  H         7.1426357233       12.5344972666       20.8335098190
  H         7.7731315350       13.6097152552       21.8634308219
  C         6.8164994159       14.4322775311       20.0477209021
  C         3.3969028318        7.2771910352       16.0514483696
  H         2.0398313652       11.0736695146       28.5043796284
  H         1.5931003200       11.0655061427       30.1377236366
  C         3.3453120400        9.8673234771       29.6327234410
  H        -2.5941165983       10.4601594333       26.4613788422
  H        -3.0913020599       10.6956535085       28.1601214088
  C        -4.0429233576        8.9845299260       27.2575843529
  C        -1.6255010638       15.5895561528       31.6443239924
  C        -1.7712218843       13.3993564601       32.7644450368
  H         6.0583060454       15.2137313468       20.1062248254
  H         7.8304204319       14.8281621595       20.0748054366
  C         6.8318710480       13.7234884468       18.7084157549
  H         3.5267728590        6.2414360903       16.2265217128
  C         3.5969307460        7.6642011920       14.7106891807
  H         3.9768647537        9.7532234875       28.7862302473
  H         3.1762201582        8.8818411144       30.0949056600
  C         3.9777249780       10.6061723609       30.7468817505
  H        -3.9128397948        8.2947786427       26.4156429080
  H        -4.1512454774        8.4282459927       28.1883340190
  C        -5.3334292371        9.7509874652       27.0224746747
  N        -1.4028574153       16.5528585764       30.6129956581
  C        -1.9940722943       16.2291012303       32.7769340959
  C        -2.2805456391       14.0307325567       33.9297683623
  H        -1.7319852774       12.3806948479       32.8492106997
  H         7.5669856542       12.9871485863       18.6323154658
  H         5.9779509544       13.1022663771       18.4525936858
  H         7.0235881073       14.4337908017       17.9220544341
  S         3.5309233304        9.3661882267       14.2664660218
  C         3.7092115705        6.6671128539       13.6302660854
  H         3.9662755630       11.6410639925       30.2647269940
  H         3.3282820258       10.7486180714       31.6188663520
  C         5.5007443278       10.4049859721       31.0693617016
  H        -5.2662876133       10.8041126857       27.2934239245
  H        -5.9846034330        9.4071784096       27.8127950413
  C        -5.8414002018        9.6833481741       25.5480466667
  S        -1.5379323459       18.0512753856       31.1532927227
  N        -1.9736563944       17.6333500853       32.6695711807
  C        -2.3223027673       15.4938356382       33.9723414815
  H        -2.6735636833       13.4594758667       34.7494827575
  C         4.0252844363        8.7556373198       12.6621247040
  N         4.0869413634        7.4215477765       12.5285298955
  O         3.4519703657        5.4893032084       13.6721985618
  H         5.9094867060       11.1250928582       31.8000914235
  H         6.0769851337       10.4651711031       30.1884967255
  C         5.6675562476        8.9940844192       31.7465375375
  H        -5.1306406280       10.2368424464       24.8429887647
  H        -6.0200142645        8.6332439076       25.2045501915
  C        -7.2901695325       10.2225071423       25.4004101915
  C        -2.8596377262       16.2630248684       35.0921044541
  S         4.2805714409        9.6974707732       11.2805124303
  C         4.2758014241        6.6928891808       11.2598432294
  H         6.1835801501        9.0785431346       32.7339408866
  H         4.7314175223        8.4714528013       31.9961783481
  C         6.2524528265        7.9734916036       30.8111843896
  H        -7.6228882827        9.8947470230       24.3704723439
  H        -7.3395414799       11.3140205597       25.5379453972
  C        -8.3453578907        9.5735208364       26.2491232337
  H        -2.7824430294       17.2774190527       34.9380384664
  C        -3.3676210405       16.0061077031       36.3448274559
  H         5.1659677713        7.1165426924       10.7652408992
  H         4.5872736306        5.6030866075       11.3564396537
  C         2.9963398717        6.8143176294       10.4839917229
  H         6.8567815716        8.4360209872       30.0557354407
  H         5.4245407824        7.3496561132       30.3921684057
  C         6.9774986284        6.9101334707       31.5386322639
  H        -8.3358594110        8.4549674060       26.2994892242
  H        -8.3083035688       10.0366180728       27.2668177370
  C        -9.7355508622        9.8592648432       25.7428376948
  S        -3.8606012396       14.5337963844       36.9240095062
  C        -3.3643268542       17.1742074832       37.2862982553
  H         2.1582672269        7.0141473994       11.1080671063
  H         3.0979066245        7.6569153308        9.7766678994
  H         2.7372731771        5.9177003075        9.9185032375
  H         7.6184096271        7.1727821086       32.3289487731
  H         7.4223125210        6.1960166273       30.8176454669
  H         6.2610768781        6.2502502921       31.9787906536
  H       -10.4161408628        9.3088423602       26.3861868847
  H        -9.8478103688        9.7245587649       24.6855894470
  H        -9.9012935584       10.9081829109       25.8067925662
  C        -4.3421682930       15.4613302321       38.3898916222
  N        -3.8681741595       16.7603596309       38.4441408445
  O        -3.0066936340       18.2931029385       36.9354891039
  S        -4.9466450013       14.7928740860       39.9002436597
  C        -3.8338541672       17.6064813298       39.6155442367
  H        -3.8575262130       18.7186653468       39.3652140816
  H        -4.8231475744       17.3196710637       40.0471787876
  C        -2.5657701483       17.3582899670       40.4857688407
  H        -2.2998838574       16.3041849980       40.6721378137
  H        -1.7638200393       17.7738380667       39.8732918898
  H        -2.7116251611       17.7544634334       41.4866240300
