352
 i =     4300, time =     4300.000, E =        34.5079474361
  H        11.9940510999        5.3807364719       31.8563892828
  C        10.9338310101        5.4315235123       32.3123946952
  H        10.6791288411        4.4242026499       32.5151344749
  C        10.0840347199        6.0149680237       31.2362365808
  C        10.8436244994        6.2214117796       33.5556479874
  C        10.5859164377        5.6838669692       29.7638804077
  H         9.1388940887        5.5357066337       31.3045029708
  H         9.5411440482        6.9649619525       31.4680954799
  H        11.0207748614        7.2913381339       33.3083936825
  H         9.9447320229        6.0926046174       34.1083088205
  H        11.5556231080        5.9339856050       34.3125494857
  C         9.4505325377        5.7914575661       28.7024564209
  H        10.8965916665        4.6511996830       29.8221721025
  H        11.5096270695        6.2553365118       29.4630251705
  C        10.0400079375        5.7179370670       27.2806075838
  H         8.5699601201        5.2065597455       29.0253986700
  H         9.0762939102        6.8232347594       28.8382932790
  C         9.1919704464        4.9970316521       26.3643735392
  H        11.0315696164        5.2465334591       27.2711829549
  H        10.2629379901        6.7432216067       26.9662587873
  C         7.8657649424        5.7238946060       26.2988816542
  H         9.6412819765        5.0273135663       25.3568914894
  H         8.9937407800        3.9405508403       26.6547171243
  C         6.7493736424        4.9442258718       25.4991167959
  H         7.3717541588        5.7614851222       27.3342134131
  H         7.7903713958        6.8034705826       26.0125327876
  C         6.4954501520        3.6183584725       26.1256111222
  C         7.3185845084        4.2450210464       24.3334382319
  C         5.4751107292        5.7469255436       25.2995126360
  C         6.8331842893        2.5091328414       25.3805585617
  C         6.0350956946        3.2669688041       27.4437686824
  C         7.3533847659        2.9125773960       24.1565893533
  C         7.8122445002        5.0156511245       23.2536068321
  H         5.6123185522        6.3998431746       24.3159227788
  H         5.1835283111        6.3639941608       26.1212634417
  C         4.1821911453        4.9373698181       24.9400033595
  S         6.4068558478        1.0295032861       26.1478460462
  C         6.0113906923        1.8872221103       27.6297808675
  H         5.7648359088        4.0176500961       28.1490125027
  C         7.8136302947        2.3341467341       23.0375457142
  H         7.8272834791        6.0457447974       23.3525342509
  C         8.2590010931        4.4305039121       22.0582580788
  H         4.3361233069        4.2900113880       24.0748103000
  H         3.9772927560        4.1684504014       25.7907444289
  C         2.9296560428        5.6709819406       24.5242306547
  C         5.7088577636        1.2344310175       28.9258663423
  C         8.2630980844        3.1147500736       21.9156796943
  H         7.5133390067        1.3940070515       22.7420644531
  C         8.7051592086        4.8186495326       20.8323044074
  H         2.2793180271        5.0259805742       23.9262452356
  H         3.0213433274        6.5197171052       23.7395354712
  C         2.1191589957        6.1815814255       25.7618009808
  C         5.7245743307       -0.1684306758       29.1650577571
  C         5.2947177526        2.0523520262       30.0787400922
  C         8.7117618943        2.3807081617       20.6842352345
  C         8.8806068405        3.6978252526       19.9643417012
  S         9.0770777341        6.3101799972       20.0793987529
  H         1.2623922354        6.7663681811       25.4801247339
  H         2.8339766336        6.6527118027       26.3784037050
  C         1.4176530013        5.0211952665       26.4267593669
  N         5.9872096510       -1.1523279055       28.1711766806
  C         5.4710340378       -0.7703446924       30.3706323991
  C         5.0936871637        1.4603576844       31.3518482596
  H         5.2783954191        3.0582523626       29.8498416606
  C         7.6030432698        1.4508807085       20.1053133650
  C        10.0332076563        1.7386014353       20.9362913424
  C         9.2969070582        4.0945310289       18.6953825911
  C         9.3607103566        5.4772776927       18.5551646362
  H         0.5568994947        4.7829950285       25.8957438307
  H         1.9342104948        4.0396996761       26.3730071507
  C         0.9952983139        5.1767600518       27.9621474681
  S         6.0287029514       -2.6081160897       28.8131762378
  N         5.5768550893       -2.1777823784       30.3526902679
  C         5.1320079283       -0.0147064396       31.5714119832
  H         4.6820136658        2.0616923901       32.1840676479
  H         7.6890681256        0.5389031928       20.7913727214
  H         8.0936857177        1.1694830149       19.1839105416
  C         6.1140195836        1.9041628976       20.1282625793
  H        10.2819837819        1.0192933090       20.1502861070
  H         9.8735972984        1.2970129908       21.9025408637
  C        11.2615772674        2.7564255734       21.0222542227
  H         9.3546693806        3.3341939838       17.9758667502
  C         9.7624625190        6.2356048074       17.3332430298
  H         0.3853451836        4.3145224091       28.2888686185
  H         0.3363979878        6.0616285421       27.9892413360
  C         2.2221431802        5.3961523219       28.8411548605
  C         4.9097286939       -0.7318374775       32.7354827330
  H         6.0440776586        2.8721376913       20.6183255329
  H         5.6026353167        1.1386604496       20.6934883579
  C         5.6357976576        1.8771387200       18.6760802176
  H        11.0452225242        3.5067621039       21.7292884731
  H        11.5723512599        3.1416231247       20.0741643498
  C        12.5572388665        1.9462119109       21.3789140904
  C         9.8838883668        7.6310987450       17.1758050125
  C         9.9060238680        5.4863718205       16.0412311103
  H         3.0112454383        4.5993249675       28.7304014265
  H         2.6923394551        6.3143550508       28.5533361873
  C         1.8119666207        5.3907022678       30.3228513199
  H         5.0545866282       -1.7213093404       32.6928497591
  C         4.6346272275       -0.2680422381       34.0096058543
  H         5.8577813596        0.8499340985       18.2866385333
  H         6.3346095815        2.5143953807       18.2378437324
  C         4.2274678662        2.3051460200       18.3990169054
  H        12.4374720040        1.1426655392       22.0359404120
  H        12.9931035576        1.5399541487       20.5255082453
  C        13.6213430247        2.8442301941       21.8903947057
  N         9.5094572849        8.6011521525       18.1444936100
  C        10.1960278877        8.2574302223       15.9736552300
  C        10.3189700768        6.0289170467       14.8994251069
  H         9.9536931403        4.4523326220       16.1193615769
  H         2.5118585196        4.8217021644       30.9147547744
  H         1.8922714314        6.3646861169       30.6304007734
  H         0.7564715783        5.3286047389       30.5441706211
  S         4.2971340537        1.3551172067       34.5290173163
  C         4.7573642274       -1.2314417617       35.1166280066
  H         4.0220732251        3.2741937322       18.6961849311
  H         4.1371401006        2.2070581816       17.3129304950
  C         3.1592047575        1.4835377499       19.0214192432
  H        13.1662408481        3.7070328079       22.4100584565
  H        14.1282232336        3.3702088475       21.0938778159
  C        14.8229426728        2.0617570759       22.5277303316
  S         9.6415652488       10.0852901791       17.5855600813
  N        10.1380536925        9.6976733589       16.0716031073
  C        10.4565528693        7.5156659893       14.7864243582
  H        10.8654896074        5.3786938709       14.1771766339
  C         4.2289021774        0.6923170575       36.1984282360
  N         4.3853075258       -0.6134466617       36.2974951892
  O         5.3411677013       -2.3319686008       34.9694107161
  H         2.2632298479        2.1602466368       18.9074545101
  H         3.1400419821        1.3065013631       20.0555981153
  C         2.8821650014        0.1820321956       18.2060226496
  H        14.6210489229        1.2707740712       23.2731093000
  H        15.5084070977        1.5417386555       21.7322572699
  C        15.6136586085        2.7772347320       23.5523835393
  C        10.6632834396        8.2342824053       13.5730255369
  S         3.8380535719        1.6005332111       37.6145504029
  C         4.7302914188       -1.2877078677       37.5439177190
  H         2.7335503046        0.5395507968       17.2099451529
  H         3.8465381409       -0.2930651976       18.1078240205
  C         1.8706515166       -0.6381761716       18.8821249092
  H        15.1199644401        2.7578263772       24.4857699957
  H        15.8217278236        3.7547938984       23.2026433307
  C        17.0231324926        2.2177216490       23.6998224086
  H        10.6254340232        9.3207369352       13.5817161027
  C        11.2547323049        7.8385667063       12.3357656335
  H         4.3114198918       -0.8954723468       38.4498021267
  H         4.1969669787       -2.3121785877       37.4566758088
  C         6.1972903639       -1.6278174705       37.6556122945
  H         1.1087645603       -0.0280568452       19.2429926750
  H         2.4086953605       -1.2118245823       19.6080565085
  C         1.3103192442       -1.7825169623       18.0164693261
  H        17.5573286533        2.5303516167       24.6366258722
  H        16.8143217119        1.1657643260       23.7201340756
  C        17.9605903272        2.5320391507       22.5275720514
  S        12.0356107652        6.3070392095       12.0564687459
  C        11.4180098315        8.9027518193       11.2683619394
  H         6.8885124394       -0.9914141419       36.9858439970
  H         6.5485534427       -1.6222965433       38.7150780237
  H         6.3374830508       -2.7259693830       37.3491871024
  H         1.9111722009       -2.1754850229       17.2359071669
  H         0.3626179564       -1.4405975107       17.7112482174
  H         1.1341786045       -2.6618629111       18.6374899940
  H        17.5338260884        3.4136616180       21.9733842163
  H        17.9651691310        1.8481209033       21.7258811849
  H        19.0487187161        2.5853762544       22.7041147777
  C        12.5708544757        7.1624195489       10.4918371975
  N        12.2536095011        8.4649021415       10.2921344139
  O        10.9191948682       10.0108914165       11.3717696883
  S        13.2730038231        6.2691377977        9.1759126549
  C        12.4943960116        9.3714322873        9.1581310583
  H        12.6127084357       10.3923393629        9.5359289553
  H        13.3588040765        8.9632970599        8.6158880907
  C        11.2253409490        9.2947747380        8.2197761220
  H        10.5911687444       10.0721684811        8.4279248782
  H        11.5049074643        9.3406996593        7.2065287189
  H        10.7449288955        8.3074516651        8.3551682497
  H        -4.5524065807       13.1394033237       16.5782727479
  C        -3.3783372619       13.2444167422       16.6443816370
  H        -2.9340450543       12.3310780841       16.9477465267
  C        -3.0977777202       14.3843224589       17.6195915840
  C        -2.8485879191       13.5407733493       15.2122621045
  C        -3.4900958085       13.8774621527       18.9727369326
  H        -2.0110956450       14.6847126635       17.6259912913
  H        -3.7076963903       15.1927231035       17.3071337916
  H        -3.0092952285       14.5486760138       14.9793975810
  H        -1.7446634760       13.2839676751       15.0273078066
  H        -3.4834417880       13.0404609549       14.5002252764
  C        -2.2880333686       13.4492919177       19.8127304342
  H        -4.2347178335       13.0619654077       18.8563380071
  H        -4.1001050677       14.5282939962       19.5605198590
  C        -2.6048369688       13.0394901372       21.2671839304
  H        -1.5909109615       12.8217369838       19.2919500834
  H        -1.7397354818       14.3229845383       19.8456174425
  C        -1.4013593661       12.4967121844       22.0054544695
  H        -3.4055211593       12.3428819237       21.1740558156
  H        -2.9977521308       13.9741786443       21.7387528248
  C        -0.4502366601       13.4938608620       22.5524134663
  H        -1.8875538086       11.9761007805       22.7598322668
  H        -0.8542990518       11.8330565220       21.3729603513
  C         0.7916806372       12.8519754261       23.3590216890
  H        -0.0877049702       13.8868776042       21.5770603309
  H        -0.9449522321       14.2170603933       23.1815773666
  C         1.2239017026       11.5193913447       22.7596332231
  C         0.2650253366       12.2202319680       24.6081755651
  C         1.9818721264       13.8206893603       23.6395789153
  C         0.9147207847       10.4344362444       23.5720740912
  C         1.7346294248       11.1497902319       21.5651177715
  C         0.3803597452       10.8503095591       24.7710118997
  C        -0.0373037817       12.9631339292       25.7701542492
  H         2.3299072118       14.4670704062       22.8376014009
  H         1.6782202585       14.5651971753       24.2805648361
  C         3.1911846203       13.1183353445       24.1759645132
  S         1.4326227341        8.9446878437       22.9449431254
  C         1.7564744997        9.7506084261       21.4010209264
  H         1.9465024367       11.9483882625       20.8614219094
  C         0.0638179973       10.2833434003       25.9741279105
  H        -0.1479173771       14.1078322640       25.6107398901
  C        -0.3286671127       12.4120456087       26.9847839061
  H         3.4341680304       12.2780609086       23.4784295669
  H         3.0295433831       12.6180835690       25.1414745364
  C         4.4600201131       13.9939603200       24.2377544474
  C         2.2073374791        9.1128887404       20.1400589491
  C        -0.4140245059       11.0237663836       27.0790507534
  H         0.1874286064        9.1704759153       26.0154161245
  C        -0.7529778482       12.8113114056       28.1994198985
  H         5.0372013311       13.6226364666       25.0052273200
  H         4.2215715564       14.9697744405       24.7146220468
  C         5.1494272541       14.1047501712       22.8923957479
  C         2.1675814203        7.7358270373       19.8411430050
  C         2.5759859800        9.9848264018       19.0544997867
  C        -0.8758668641       10.3537604796       28.3510893037
  C        -1.0921702508       11.7102516072       29.0108976255
  S        -0.9530826002       14.3021382826       29.0476764673
  H         5.8722770805       14.9252160834       22.9756479675
  H         4.3976981754       14.5982596394       22.3141156320
  C         5.7511649871       12.8875405139       22.2260249371
  N         1.7521569912        6.6660861782       20.7158760970
  C         2.4692123110        7.3033133691       18.5446314857
  C         2.9355213810        9.5499231671       17.7574303289
  H         2.7195958959       11.0235441933       19.3465256672
  C         0.2729144260        9.6293036303       29.0150122520
  C        -2.0770542053        9.4462775141       28.2039069325
  C        -1.4988793229       12.0657602552       30.3013212584
  C        -1.4889478521       13.4100501646       30.4821744967
  H         6.3372632026       12.2803733512       22.9367657139
  H         4.9598043082       12.2006264897       22.0299862491
  C         6.6151058262       13.2597120502       21.0265238307
  S         1.9368618484        5.2839060453       19.8240238037
  N         2.5086066419        5.8605612478       18.4284059074
  C         2.7833841424        8.1232905550       17.4342960454
  H         3.2127224638       10.4071942864       17.1623154003
  H         0.4380688819        8.6838825352       28.5042023983
  H        -0.0001503561        9.3397205769       30.0471905017
  C         1.5638333172       10.3286270645       29.0945683020
  H        -1.8610825101        8.5707661468       27.6484711211
  H        -2.2978810459        9.0819712627       29.1355271777
  C        -3.2462947209       10.2098092641       27.5683641945
  H        -1.6986311935       11.2554729769       31.0292931953
  C        -1.8177357083       14.1223762817       31.8157249418
  H         7.1713486460       12.3098743910       20.8448658432
  H         7.2799960997       14.0800002282       21.1461986046
  C         6.0212202785       13.6298639174       19.7563354579
  C         3.0263623729        7.4623065033       16.2193313382
  H         1.9022072023       10.6954181675       28.0355744864
  H         1.3808451352       11.2861318298       29.6614499125
  C         2.6872450590        9.5881262310       29.7733776371
  H        -2.9908058898       10.8233055293       26.7441395554
  H        -3.6466327473       10.9216987751       28.3070082172
  C        -4.3978744969        9.3278834237       27.1669655511
  C        -1.9223474464       15.5306973240       31.9489519445
  C        -2.1189283712       13.2673271399       32.9730642345
  H         5.2381635362       12.8920387144       19.6551181927
  H         5.7289369909       14.6907318036       19.9495215916
  C         6.8825183866       13.5503575271       18.4634326047
  H         3.0872244364        6.3228087639       16.1967969996
  C         3.4528012011        7.9471184474       15.0256667095
  H         3.2058120041        8.9418063151       29.1297442916
  H         2.3845803680        8.7990623344       30.4086855182
  C         3.5667179415       10.5314557795       30.5361214423
  H        -3.8881234064        8.4858147122       26.7447425018
  H        -4.9750270698        8.9303216398       28.0093085664
  C        -5.3510469277        9.8229467014       26.0457498391
  N        -1.6105050616       16.4781695467       30.8994214521
  C        -2.2169880708       16.1622499416       33.2039083814
  C        -2.4285505967       13.9132803569       34.1717131858
  H        -1.9796076240       12.2117061788       32.9288377783
  H         7.8170672635       13.0508034737       18.5468304391
  H         6.3682977159       13.1369592945       17.6325350246
  H         7.3857454110       14.5150449967       18.2482646517
  S         3.8463138498        9.5923113846       14.6795671806
  C         3.4779965284        7.0693099863       13.8583842677
  H         3.5790150721       11.4872113639       30.1596601064
  H         3.3126541420       10.5769089984       31.6113968397
  C         5.0687086402        9.9777793986       30.4844483882
  H        -5.5808045228        9.0535377881       25.3276748138
  H        -4.9330000538       10.7104505288       25.6064682661
  C        -6.6794092347       10.1906095217       26.6314354053
  S        -1.6707917632       17.9806183208       31.5585705808
  N        -2.1227092344       17.5934987098       33.0479926181
  C        -2.5810118263       15.4300286527       34.3454451268
  H        -2.6429269849       13.2756003361       35.0435255501
  C         4.0220129491        9.0249550470       13.0010097941
  N         3.9138004052        7.6974010914       12.8336588219
  O         3.2778282048        5.8609639501       13.9227385644
  H         5.7838124527       10.8131553600       30.8379173113
  H         5.4037688701        9.7768835948       29.4912290943
  C         5.2749435242        8.6460019265       31.2281673439
  H        -7.1890383738        9.3961094990       27.1053487192
  H        -6.5132695019       10.7602261357       27.5064582968
  C        -7.5779820641       10.7895158455       25.6428813255
  C        -2.7126924819       16.0940565378       35.5191571241
  S         4.5297934659       10.0448195339       11.6420553086
  C         4.1897069453        7.0125097709       11.5070531198
  H         5.8553656616        8.9776191785       32.0651067858
  H         4.3482730827        8.1855584208       31.5701126107
  C         6.0025034808        7.5147741113       30.3940312130
  H        -7.0572265404       10.7523511796       24.6259313956
  H        -7.8943847859       11.8438739095       25.7927834559
  C        -8.7035488418        9.8574594219       25.1743968675
  H        -2.3647062826       17.0539506273       35.6334572640
  C        -3.2134145062       15.6582048168       36.6994424008
  H         4.8899451180        7.4621559901       10.8069907727
  H         4.5959118123        6.0648218504       11.6095989897
  C         2.9090554312        6.8877607699       10.6352463002
  H         7.1249639006        7.7253203732       30.1592398596
  H         5.4493140243        7.3032058993       29.5297315034
  C         5.9636728575        6.1735402357       31.2153852863
  H        -8.9053868276       10.0783160307       24.1627538236
  H        -8.1862455235        8.8732280294       25.2544126883
  C       -10.0280153770        9.9713474552       25.9699753768
  S        -3.8756619943       14.1253294134       37.0441265783
  C        -3.3824273772       16.6322897945       37.8297122005
  H         2.1857297001        7.6470979224       10.9987266397
  H         3.2033278372        7.0413706030        9.5820453118
  H         2.4363800725        5.9028155873       10.5997178437
  H         4.9400634440        5.8792225738       31.4470426155
  H         6.3671519675        6.3587917962       32.1862935553
  H         6.5569110216        5.3908536085       30.7340387865
  H        -9.8901429369        9.8336380285       27.0110355959
  H       -10.4662155952        9.1406215435       25.6174102181
  H       -10.6974761328       10.7909000001       25.5783194879
  C        -4.1664237540       14.6808537795       38.7509526220
  N        -4.0212651372       16.0485716799       38.8084159460
  O        -3.0807338585       17.7751575897       37.6606218048
  S        -4.9736517916       13.7708156333       40.0795134003
  C        -4.2550444361       16.7164450019       40.0640687706
  H        -4.5309532571       17.7000143745       39.7516376032
  H        -4.9402428675       16.2730061654       40.7228400780
  C        -2.9075264522       16.6857803302       40.8434117963
  H        -2.4683832553       15.7509284177       40.8187313538
  H        -2.1973414684       17.3920806471       40.4296744858
  H        -2.9146958126       17.0250642252       41.8610014701
