352
 i =    85800, time =    85800.000, E =        25.1928696969
  H        11.1380519475        7.7083417383       31.2041744405
  C        11.8252303530        6.9104789643       31.5261796547
  H        12.6235461607        7.4559600746       31.9801633251
  C        12.2249598351        6.1448469643       30.2785395864
  C        11.2370726485        6.1590817589       32.7266852200
  C        11.1138580887        5.5977977034       29.4137850406
  H        12.8469786346        6.7828342302       29.6995889664
  H        12.8205594961        5.3163105568       30.5956669608
  H        11.5159312862        6.7765661032       33.6298534686
  H        10.1353927655        6.0458314020       32.7065345600
  H        11.6651456798        5.1789059857       33.0011552066
  C        10.4945312616        6.6460566160       28.4646038341
  H        10.3033972010        5.1930678692       30.0494243916
  H        11.5279346717        4.7202973573       28.9039920925
  C        10.7532978306        6.2646982742       27.0048485479
  H         9.4447613893        6.9289710379       28.7350567525
  H        11.0261397948        7.5813516957       28.7794257103
  C         9.7300548134        5.2552565540       26.5443163283
  H        11.6775224630        5.8243568955       26.8038357526
  H        10.7573326206        7.2095281205       26.3762353352
  C         8.4129436096        5.9807029766       26.2701399599
  H        10.2651500356        4.9965876489       25.6828505867
  H         9.6555166995        4.3966167482       27.2888077096
  C         7.3776918158        5.2427876007       25.4703155868
  H         8.0512558971        6.4135921090       27.2299600135
  H         8.7023299444        6.8248830427       25.7127790678
  C         7.0855938029        3.9277018063       26.2270950470
  C         7.9109416423        4.4224967369       24.2824186988
  C         6.1604725730        6.0582981857       25.0481389125
  C         7.2924287511        2.8244058523       25.4461197611
  C         6.6630709913        3.6358970020       27.5217480036
  C         7.8798401791        3.1200512752       24.2370428880
  C         8.4724661755        5.0700768668       23.1440801576
  H         5.6553075436        5.5809702800       24.2737231818
  H         6.4644701132        6.9926159861       24.6504238931
  C         5.3087454214        6.5201552578       26.1899947536
  S         6.8295087207        1.3830838480       26.3090438564
  C         6.5105915939        2.3182524484       27.7423689904
  H         6.5983347454        4.5177550750       28.2030707271
  C         8.3420561207        2.4691423123       23.1098755843
  H         8.5042881935        6.2058047756       23.0558324239
  C         8.8804037669        4.4108384981       22.0543011541
  H         5.3362249401        6.0169930868       27.1473496172
  H         5.5548108195        7.5840129106       26.5363573518
  C         3.8585110705        6.5066112255       25.6470341091
  C         6.1321771715        1.6808237696       29.0484884898
  C         8.8364343064        3.0554217177       21.9625087837
  H         8.2529873782        1.3947083298       23.1420456150
  C         9.3442784956        4.8568516181       20.8449705335
  H         3.7225216862        5.4969938392       25.2417375752
  H         3.7388794158        7.1098843475       24.7418220319
  C         2.8565810316        6.7700923159       26.7830082914
  C         6.0681639405        0.2582092849       29.2851452909
  C         5.9215834745        2.5264312629       30.2274533877
  C         9.3145648704        2.4138989622       20.7571606595
  C         9.5862546776        3.8325730400       20.0068601282
  S         9.6263696928        6.4425118159       20.1632311812
  H         1.9643154649        7.1861697985       26.2839063009
  H         3.3398604601        7.4332699511       27.4263761219
  C         2.5997185884        5.5390791297       27.6024684024
  N         6.3552836770       -0.7644592632       28.3713231692
  C         5.8414969020       -0.2574307785       30.5894019578
  C         5.6429477500        1.9744438378       31.4455783952
  H         5.8624689115        3.6136483385       30.1590953574
  C         8.1846615931        1.4783771960       20.1623420386
  C        10.6551842917        1.6493982858       20.8514614924
  C         9.9832474625        4.2609388618       18.7177981019
  C        10.0310703160        5.6183151761       18.6759780798
  H         2.5177943446        4.7299455332       26.8757365091
  H         3.4605701020        5.4614489047       28.1724836842
  C         1.3444325959        5.5952006211       28.5004489792
  S         6.3368794141       -2.1821254033       29.1392053558
  N         5.8260094860       -1.6400224563       30.6031472563
  C         5.5439619130        0.5665003735       31.7145836594
  H         5.3567406624        2.6408301367       32.2115243354
  H         7.8734599485        0.6726879279       20.8581827852
  H         8.3895780954        0.9139754695       19.2239681030
  C         6.9467581742        2.2827992786       19.9048668339
  H        10.8761641929        1.0611697236       20.0101714685
  H        10.5733422591        0.8793990890       21.6030045917
  C        11.9008579722        2.5182105350       21.2444594386
  H        10.2348316324        3.5867264932       17.9048428343
  C        10.1622082086        6.4466753360       17.3966466907
  H         1.1358328360        4.5299473386       28.8019070466
  H         0.4662065650        5.9363891738       27.9471851605
  C         1.4683827004        6.3681487247       29.7915100123
  C         5.2363305593       -0.0212700794       32.9842505016
  H         7.1676861270        3.2666968533       19.3943131098
  H         6.5027504332        2.6127930680       20.8582466767
  C         5.8526730390        1.6215694754       19.1275821373
  H        11.8170913054        3.0346655085       22.1566621917
  H        12.1406573791        3.2515539782       20.4908540902
  C        13.2224179388        1.7055547082       21.3159362723
  C        10.2066483243        7.8601690807       17.2463775742
  C        10.3981984690        5.6969046159       16.1015981357
  H         1.7182405847        7.3833694961       29.4636680173
  H         0.5497867627        6.5970773002       30.2023061028
  C         2.4109570927        5.7926755079       30.8465760684
  H         5.2560067280       -1.1085085741       32.8381962180
  C         4.8449751166        0.4829481714       34.2187207007
  H         5.5686876911        0.7100531592       19.5922861265
  H         6.1948338825        1.4820556159       18.1124110481
  C         4.6146331760        2.5434261335       19.0378330304
  H        13.0949827323        0.9803696333       22.1526294625
  H        13.2934250853        1.0838267893       20.4077191901
  C        14.4233333049        2.5873452224       21.5287372857
  N         9.9101268823        8.7297157543       18.2560357689
  C        10.4997319372        8.4972453187       16.0700692544
  C        10.6603292362        6.3725699896       14.9213005389
  H        10.2977576795        4.6164709142       15.9677244881
  H         3.1539191859        6.5791538874       31.2284130666
  H         1.8619536205        5.4401040961       31.7248729968
  H         2.9916185860        4.8867188826       30.5501969480
  S         4.4851072018        2.1693480784       34.6171781158
  C         4.8526814413       -0.4522637211       35.3433588841
  H         4.5207639740        3.2890014476       19.8873236907
  H         4.5516972038        3.2373259149       18.1973883389
  C         3.3878426846        1.5970728150       18.9555862681
  H        14.2050219510        3.4360528638       22.1838579831
  H        14.8083669476        2.9983752481       20.5885753704
  C        15.5219205691        1.7487222108       22.1301428908
  S         9.9264359008       10.2496906130       17.7087732372
  N        10.3261677807        9.9005039880       16.1940495439
  C        10.9475589024        7.8230475125       14.9056938850
  H        10.6921387614        5.8394052307       14.0236852045
  C         4.3020067952        1.5322282906       36.2417352042
  N         4.3772194012        0.2145539221       36.4340410066
  O         5.1101590918       -1.6646492463       35.2147351770
  H         2.5800285352        2.1910007027       18.8327254664
  H         3.2418370134        1.0637020516       19.9340567302
  C         3.4482812795        0.6041825105       17.7855064931
  H        15.0843599466        0.8635575195       22.7398922872
  H        16.1014906113        1.3427132502       21.2639273629
  C        16.4267533864        2.5676521421       23.0952336917
  C        11.3414355143        8.4885101580       13.6865260176
  S         3.9683990200        2.6084763752       37.5956318110
  C         4.1855391590       -0.4052613128       37.7270418066
  H         2.6948015942        0.8373835733       17.0747698205
  H         4.3658122354        0.8256346906       17.2295474500
  C         3.2000893281       -0.8551025043       18.1917177973
  H        15.9779031716        2.8207473213       24.0282095642
  H        16.6543996612        3.5161697440       22.6619184703
  C        17.7431049504        1.8080507520       23.4819195283
  H        11.5049426486        9.5116263589       13.7479049850
  C        11.7291351855        8.0961176643       12.4344924418
  H         3.7794680067        0.3078344432       38.4543933471
  H         3.4755139941       -1.2047822619       37.8016669446
  C         5.4622273229       -1.0186390005       38.1322932355
  H         2.2050578299       -0.8904449173       18.4965983482
  H         3.7380292485       -1.2397584603       19.0080324191
  C         3.3626514429       -1.9317475139       17.1954419321
  H        18.2420132630        2.2711968637       24.3023548431
  H        17.4490380237        0.7519265362       23.7464490876
  C        18.6655870887        1.7270816513       22.3003769098
  S        12.0776723174        6.4159520710       11.9788538604
  C        11.9466562950        9.1085652293       11.3484556055
  H         5.4002724633       -2.0624310701       37.8405767146
  H         6.3224037567       -0.5446880507       37.7764410019
  H         5.4543309087       -0.9350169525       39.2266029883
  H         3.0255149522       -2.9840847824       17.3482515750
  H         4.4189525804       -2.0207684492       16.9797966447
  H         2.9254658186       -1.7361618120       16.2086225741
  H        19.6604876001        1.2741402542       22.5154902802
  H        18.8565490497        2.6908344124       21.8662292336
  H        18.1681490277        1.1166689214       21.5162718031
  C        12.4793451278        7.0629462025       10.3759421038
  N        12.4157406469        8.4333618050       10.2564710615
  O        11.7240771460       10.2861120201       11.5158448914
  S        12.9140882340        5.9948935640        8.9912634136
  C        12.7363667765        9.1651979083        9.0281895522
  H        12.7639311619       10.2096009877        9.3727225763
  H        13.6736965937        8.8070280148        8.6146570724
  C        11.5484468728        8.9865088949        8.0497019761
  H        10.6515400131        8.7562299067        8.7044237205
  H        11.4405540196        9.9726536725        7.5886373593
  H        11.7423163555        8.3786123617        7.1821460159
  H        -3.7039857045       14.7901327311       16.2861573733
  C        -3.1460573964       13.8214331083       16.3420906114
  H        -3.8553605252       13.1006644440       16.8047295397
  C        -1.9250795618       13.7018279989       17.2743297123
  C        -2.8477009882       13.4448434901       14.9020828528
  C        -2.2153450796       14.3572746770       18.6292681673
  H        -1.5234123949       12.6181956304       17.3917874740
  H        -1.1729993320       14.3524104566       16.8389880196
  H        -1.8755347391       12.8186413169       14.8906274247
  H        -3.6376870717       12.8113023189       14.4874797431
  H        -2.7954301656       14.3702628189       14.3273503802
  C        -1.5021782220       13.4642818572       19.7023661207
  H        -3.2591260460       14.3617535049       18.8510139522
  H        -1.9234124255       15.4258399506       18.6969523927
  C        -1.9111915180       13.7633403913       21.1831966268
  H        -1.6575351633       12.3380027076       19.5814025017
  H        -0.4510974399       13.7875527091       19.6410267921
  C        -0.9494882006       13.1486672258       22.1753572153
  H        -2.8962431625       13.3079996267       21.2876780788
  H        -2.0582869575       14.8250250050       21.3593057438
  C         0.2914778245       13.9958737054       22.5007326315
  H        -1.5586989845       12.8670397761       23.0658582427
  H        -0.5553658670       12.1971277487       21.7407252022
  C         1.4374315468       13.2574862051       23.2297655856
  H         0.8028709546       14.3314615643       21.5614645897
  H         0.0797921958       14.8926415526       23.1752765528
  C         1.7760450571       11.8859760820       22.6302114841
  C         1.0344421275       12.5415478265       24.4923310159
  C         2.6814814348       14.0816826704       23.5008909874
  C         1.6296707146       10.8369514588       23.4927742052
  C         2.3975832687       11.4892360989       21.4473526129
  C         1.0380375000       11.2410030853       24.6920631587
  C         0.5901662579       13.2877221711       25.5870076268
  H         2.9015306548       14.7260156290       22.5665343788
  H         2.5825448688       14.9037571205       24.1703442207
  C         3.8825541197       13.3009426877       23.9501256334
  S         1.7124572877        9.2895666109       22.6124697333
  C         2.4385739699       10.1375066160       21.2837317714
  H         2.7328673995       12.2373579603       20.8270910348
  C         0.7039991628       10.6812790837       25.8808804007
  H         0.7128560276       14.4211820086       25.5447915192
  C         0.1619513021       12.7115691381       26.7569200582
  H         4.0796367612       12.4252258748       23.4949853638
  H         3.6679966266       13.0854758452       24.9849827708
  C         5.1261007483       14.1807651925       24.0821127750
  C         2.8346481774        9.3828985278       20.0115117384
  C         0.1993579729       11.3925689894       26.9134379589
  H         0.8874315699        9.6104018375       26.0183385128
  C        -0.2368843564       13.1656762981       27.9611425657
  H         5.8361168272       13.6155814259       24.6669104906
  H         4.9330486591       15.0275760840       24.6520200099
  C         5.7530084704       14.3895945515       22.6796809007
  C         2.7991303820        8.0099181177       19.7772343067
  C         3.3063042887       10.2456444911       18.8853713105
  C        -0.2283230936       10.7286744454       28.1064668787
  C        -0.4574143291       12.0539203832       28.7799688549
  S        -0.5819659433       14.6338390460       28.7526165232
  H         6.7475749330       14.8088168036       22.9446644058
  H         5.1691669365       15.1278939831       22.0631296745
  C         6.0379563663       13.1464955012       21.8653193146
  N         2.2584336304        7.0840641238       20.7537327226
  C         3.0846208951        7.4310193739       18.5778898236
  C         3.5857212738        9.6951652479       17.6618611464
  H         3.3192387625       11.2991311149       18.9447855232
  C         0.9082441232        9.9054088420       28.8091292306
  C        -1.4971610036        9.9131406635       27.9150651031
  C        -0.7423027763       12.3690315966       30.1276143871
  C        -0.8806016594       13.7227461820       30.2114951815
  H         6.2045841192       12.2345685169       22.3929277357
  H         5.2120066273       12.9474804893       21.2706462566
  C         7.2871028458       13.2633037487       21.0122812061
  S         2.2647899384        5.6180923475       20.0700097494
  N         2.7343582405        6.0646328956       18.5777698731
  C         3.4577149562        8.2181227938       17.4642261544
  H         4.1008441948       10.3291977578       16.8840809845
  H         1.3495344418        9.2352618364       28.1105860808
  H         0.4704463353        9.2341936246       29.5860529207
  C         2.1657859515       10.6689810699       29.3180604437
  H        -1.2701170425        9.1543597919       27.1357494440
  H        -1.6067704273        9.4004810442       28.8479658140
  C        -2.8455439961       10.6100695421       27.6380184425
  H        -0.9023234841       11.5658309995       30.7948326769
  C        -1.2818594321       14.4444679398       31.4665400080
  H         7.8084459438       12.3347736129       21.0620030864
  H         7.9718736961       13.9714467884       21.3814364565
  C         7.0317371777       13.7647327744       19.5894162096
  C         3.7888299637        7.4466811111       16.2662992900
  H         2.4312673892       11.3843747234       28.5186915765
  H         1.8791880596       11.3862784589       30.0824210121
  C         3.2862086190        9.8040275020       30.0543952776
  H        -2.7382429932       10.9036649211       26.5847677435
  H        -2.9766092409       11.4590762393       28.2923997837
  C        -4.0247698390        9.5689168686       27.8016901268
  C        -1.3695026369       15.8797001063       31.6467727802
  C        -1.6020406837       13.6074957572       32.6425263322
  H         6.0070754667       13.4397198085       19.2091454897
  H         7.1133054208       14.8302428396       19.6449065481
  C         8.0789793978       13.2111092859       18.5734022961
  H         3.9259761795        6.4286851743       16.5168704170
  C         3.8400042662        7.8127634844       14.9439234990
  H         3.3145195016        8.8572189167       29.5920511285
  H         2.9929100630        9.6305949656       31.0625008690
  C         4.6215693432       10.4490037477       29.9224536359
  H        -3.9488292243        8.7987810738       27.0168476476
  H        -3.9522848550        9.1444897055       28.7888674877
  C        -5.3997658052       10.0885798113       27.3946298641
  N        -1.2614623564       16.8690146729       30.6762069663
  C        -1.6723841692       16.3928465984       32.9377842706
  C        -1.9259244152       14.1874707836       33.8920554687
  H        -1.5759567099       12.5197862171       32.5811127883
  H         8.5612014127       13.9217550492       17.8845042432
  H         8.9376586208       12.7538740697       19.0696109590
  H         7.7016878020       12.4717896473       17.9066873229
  S         4.0490551351        9.4613048811       14.4249990098
  C         4.0690744764        6.8066034450       13.9065174547
  H         4.6992783393       10.7908205171       28.8684996249
  H         4.5098147739       11.3939467864       30.4622420433
  C         5.8495298657        9.7615339169       30.4382159520
  H        -5.4035798718       11.1938362633       27.6142925366
  H        -6.1026424722        9.6295390470       28.1312686056
  C        -5.6975678622        9.9432682856       25.9028437217
  S        -1.1931566015       18.2768818440       31.4290854385
  N        -1.5986773935       17.8226135234       32.9739711266
  C        -1.9353144477       15.6628238073       34.1130668418
  H        -2.0833947571       13.6185336914       34.7333827853
  C         4.1862956229        8.7767930145       12.8280753660
  N         4.2685422754        7.4341585431       12.7678384901
  O         4.1621738340        5.5827277021       14.1577708767
  H         5.8531965078        9.5814693434       31.5237104672
  H         6.5296171265       10.6360913774       30.4133252159
  C         6.4188910195        8.4594804528       29.7543849124
  H        -4.7567151008        9.9948448010       25.3935800201
  H        -6.2176723353        9.0401070451       25.5745697638
  C        -6.4881702266       11.2011888274       25.3913604754
  C        -2.1349152460       16.3193120625       35.3618896941
  S         4.4795948458        9.6195097287       11.4190442979
  C         4.2271799943        6.7237275993       11.4895976557
  H         5.8856166336        8.3620217845       28.8078027805
  H         7.4449734696        8.6351464519       29.4233004715
  C         6.3390210922        7.1315180151       30.5079908359
  H        -6.3947918785       11.2006751665       24.3160419844
  H        -5.9128951457       12.1460535715       25.7180723589
  C        -8.0191165682       11.3347145541       25.9003300175
  H        -1.8402177506       17.3361310120       35.2705954934
  C        -2.7274758208       15.9303242137       36.5318047932
  H         4.9641268050        6.9433054135       10.7683238801
  H         4.3358377235        5.6495617472       11.6197361834
  C         2.7983487225        6.8195282946       10.9070961988
  H         6.4692300576        6.3987446233       29.7905123137
  H         5.3473110491        7.0221633993       30.8732076445
  C         7.4286384262        7.0002487780       31.5034660292
  H        -8.1978322514       11.3407262288       26.9299845567
  H        -8.2581527315       12.3478612015       25.6844982935
  C        -9.0125185837       10.4549985743       25.2157213515
  S        -3.4963594650       14.4334190122       36.9828865854
  C        -2.7371793473       16.9083851507       37.6486607766
  H         2.7674177209        7.4764587009        9.9851231857
  H         2.2773487291        5.8971040483       10.6049406077
  H         2.1776819197        7.2756922902       11.6055850260
  H         8.0234212573        7.8811826235       31.8020473898
  H         8.2235500205        6.3225484549       31.1377097017
  H         7.0481798142        6.6235463376       32.4828055991
  H        -9.9920485445       10.6975166090       25.6256622071
  H        -8.9121482648        9.4666358249       25.6295655251
  H        -8.9464213316       10.4135374053       24.0712991891
  C        -3.8908113476       15.1453943877       38.4953725316
  N        -3.5109590427       16.5014285217       38.5887879601
  O        -2.2996756482       18.0614648012       37.5599588171
  S        -4.7480317453       14.3724392846       39.8651554656
  C        -3.7622638518       17.3099798092       39.7559917134
  H        -3.7840681536       18.4100072885       39.5443237078
  H        -4.7933699157       17.0505990027       40.0639338119
  C        -2.7665796266       17.1105893772       40.9301110933
  H        -2.6070888184       18.1199309620       41.1865073898
  H        -3.1876530404       16.6367124281       41.8442838862
  H        -1.7806271931       16.7501204837       40.6539669264
