352
 i =    12000, time =    12000.000, E =        25.4407095141
  H        12.4719538312        6.7078220693       32.7952866511
  C        11.9744944686        5.7431189141       32.6096605749
  H        12.7620351547        5.0577654131       32.1982922755
  C        10.9583260570        5.9139634193       31.4233755562
  C        11.3485796227        5.2481544925       33.9512309936
  C        11.6346416034        5.4605064266       30.1147672021
  H        10.1341842028        5.2616669665       31.5988533181
  H        10.5585559912        6.9385856797       31.3106593562
  H        12.1723335235        4.9316844798       34.5634244876
  H        10.8331778908        6.0900986738       34.3779414446
  H        10.6504532404        4.4737713648       33.6536580362
  C        10.5741147999        5.3438693130       29.0589348970
  H        12.2563506453        4.5457181672       30.2249838702
  H        12.4119701664        6.1569904520       29.7607105290
  C        11.2628112507        5.0928838700       27.6874196529
  H         9.9179413923        4.5199023983       29.3413934779
  H        10.0495122254        6.3312260338       29.1507693273
  C        10.2808874397        4.4857295711       26.6903172614
  H        12.0599028103        4.2962613109       27.8362539166
  H        11.7595435526        5.9640980848       27.2950974847
  C         9.1333912467        5.4510858908       26.3085630208
  H        10.9254912987        4.1842979029       25.8693512858
  H         9.9122282053        3.5418110413       27.0554489839
  C         7.8702588378        4.8864662322       25.5886899428
  H         8.7350612568        5.8293909251       27.2534818959
  H         9.4351848397        6.3635087189       25.8541533881
  C         7.4156047213        3.6105754021       26.2805875939
  C         8.2010544379        4.1759442411       24.3194527756
  C         6.7242281315        5.8836004408       25.3822223820
  C         7.5873351312        2.5132008114       25.4557756079
  C         6.8047687147        3.2556001724       27.5016326175
  C         8.1120992485        2.8595154899       24.2226850664
  C         8.6430377399        4.8810076301       23.2083067011
  H         6.9865677730        6.5871893919       24.6242857848
  H         6.4256284461        6.3324500543       26.2391900763
  C         5.3503426219        5.3548198066       24.8253153481
  S         7.1463878201        1.0067191883       26.2447884868
  C         6.6555715555        1.9394367244       27.6479144370
  H         6.5323403619        4.0220331011       28.2169078097
  C         8.5477343504        2.2700842592       23.0557676714
  H         8.4703969489        5.8763550045       23.3134660047
  C         8.9202873314        4.3412439120       22.0196982672
  H         5.4516243915        4.7965794262       23.8802571115
  H         5.0454295118        4.6090185553       25.5550734565
  C         4.2111032142        6.3448532528       24.6682429418
  C         6.2267777151        1.2546007544       28.9033087584
  C         8.9407927733        2.9968004111       21.9042836571
  H         8.6235659055        1.1963415221       22.9473619891
  C         9.3025230085        4.6997521139       20.7581024718
  H         3.5923187910        5.8210634337       23.8929401427
  H         4.6118620769        7.2799078992       24.2945440524
  C         3.3534985507        6.5084739045       25.8787901028
  C         6.1466649795       -0.1714305133       29.1257694190
  C         5.7816825881        2.0391758362       30.0434607233
  C         9.2619209888        2.2894156469       20.6370028485
  C         9.5246448965        3.6250424865       19.8920752212
  S         9.4370582336        6.2130778959       19.9628910268
  H         2.8735331043        7.5601624090       25.7935114002
  H         3.9958730063        6.5155779889       26.7085341734
  C         2.4472227181        5.3139212135       25.9967940938
  N         6.6547588170       -1.1289521509       28.2544661187
  C         5.7885558435       -0.7169635369       30.3228727204
  C         5.5763297768        1.4829196627       31.3137038202
  H         5.7055023073        3.1174356764       29.9215288594
  C         7.9874030680        1.6455883421       19.9925330301
  C        10.4655876908        1.2961407922       20.7477973604
  C         9.8821379408        4.0668599798       18.6298428397
  C         9.8937797595        5.4648061845       18.4827566270
  H         1.8643282729        4.9808469523       25.1927275795
  H         2.9808461499        4.4087011662       26.1813271946
  C         1.4047510932        5.4058059905       27.1242009048
  S         6.4738010370       -2.5962051162       28.8907131746
  N         5.8313254227       -2.1323001606       30.2877917604
  C         5.5226036135        0.0270602347       31.4971883118
  H         5.3605606810        2.1607241498       32.1089763243
  H         7.5968362487        0.7609631784       20.4936447501
  H         8.3072064753        1.2885485430       18.9917677284
  C         6.7575528864        2.5041778210       19.8754433756
  H        10.6422005693        0.9733423222       19.6864514547
  H        10.1956844524        0.4015713425       21.3591397473
  C        11.6493661626        1.9819420545       21.3047311270
  H        10.0951547346        3.3079494355       17.8606761975
  C        10.1136436024        6.2172291091       17.2142797649
  H         0.4868480337        4.7542221087       27.0063505101
  H         0.9092142014        6.3833161078       26.9830960624
  C         2.0675689726        5.1909004551       28.4480701155
  C         5.2903341082       -0.7081053217       32.6678252726
  H         7.0451294005        3.2307682494       19.1354577386
  H         6.4612821950        3.1051799911       20.7113345232
  C         5.5468753207        1.6871292424       19.3535884316
  H        11.5180968313        2.4877301812       22.3239251670
  H        11.8598445539        2.9405942846       20.8590050665
  C        12.9219087280        1.1390577620       21.0390140527
  C        10.0543240951        7.6171727859       17.1279159029
  C        10.3414900665        5.5028192327       15.9372581212
  H         2.6253414588        4.3245004083       28.3547282615
  H         2.8973067615        5.8851084860       28.6580787700
  C         1.1302604272        5.1724343131       29.6872535829
  H         5.3290500122       -1.7711024840       32.4816425203
  C         5.0037143985       -0.3311753173       33.9263005253
  H         5.2096066411        0.9787726258       20.1738842773
  H         5.7783303781        1.2278616796       18.4209437874
  C         4.4551080006        2.6929746168       19.0198760222
  H        12.9325261895        0.2562968216       21.7215273018
  H        12.8174188543        0.7829177860       20.0220685605
  C        14.1979555779        1.9730551029       21.0924163114
  N        10.0612297241        8.4417908432       18.2318265215
  C        10.3288048549        8.3290843082       16.0022150685
  C        10.4596823729        6.1995559283       14.7699816038
  H        10.1958516033        4.4218232314       15.8198983951
  H         0.6512001083        6.1486814591       29.7750675931
  H         0.5186376285        4.2383797196       29.7304749805
  H         1.7884274490        5.2340035805       30.5471896817
  S         4.7503001347        1.3034087744       34.4774726996
  C         5.0592549159       -1.3678243369       34.9560983566
  H         4.3820828480        3.4707844957       19.8274321499
  H         4.8994162884        3.2810012669       18.1489701788
  C         3.0663949736        2.0663301813       18.6199500259
  H        14.0978821124        2.7655313202       20.3575285160
  H        15.0292475722        1.2644604783       20.8127026188
  C        14.5167923996        2.6067742704       22.4229819091
  S         9.9260497786       10.0259872180       17.6822451554
  N        10.2049289677        9.6816412472       16.1519329595
  C        10.6160683477        7.6794779268       14.7305627526
  H        10.4517567650        5.7043035427       13.7837033101
  C         4.6181489195        0.5529923435       36.0311343021
  N         4.8154848964       -0.7815859235       36.1513188969
  O         5.1926362097       -2.5423581066       34.7167029757
  H         2.5126297419        2.8605529365       18.2444818711
  H         2.5593213702        1.8518127781       19.5069172153
  C         3.2349768214        0.8497468483       17.6485159351
  H        15.0447793272        3.5404927874       22.3432112125
  H        13.6646045030        3.0496127771       23.0200702566
  C        15.1833956843        1.5401208234       23.2765226168
  C        10.7758840501        8.4795840829       13.5357566415
  S         4.1299708265        1.4205567767       37.4693303260
  C         4.9045580977       -1.4556655111       37.3928546096
  H         2.3350102492        0.8511844616       16.9530948723
  H         4.0719215916        0.9730089871       16.9726520476
  C         3.3595328066       -0.4887977978       18.2659873369
  H        15.2287342586        0.5883909219       22.8336578135
  H        14.6318406558        1.5169518486       24.2174034056
  C        16.5250447776        1.7661791789       23.8976384016
  H        10.4266405695        9.5483058801       13.5443842216
  C        11.3916718846        8.1748940022       12.3246376940
  H         4.0876725863       -1.2990762794       38.0393389664
  H         4.9038483201       -2.4837786822       37.0508538216
  C         6.3019411493       -1.2312941182       38.0079103217
  H         3.5489105335       -0.4727227716       19.3123921946
  H         4.1253682469       -0.9924309327       17.7370251349
  C         2.1593149727       -1.2914219899       18.0688541775
  H        16.4803599543        2.7113822768       24.5268526516
  H        16.7918331850        0.9680251320       24.5585602798
  C        17.4892128214        1.8906625488       22.7574130542
  S        12.1704913891        6.6757216539       11.8956209918
  C        11.3770905830        9.1755822784       11.2341644795
  H         6.7582258083       -2.1397586037       38.5368146934
  H         7.0416440375       -0.8126041838       37.3417618422
  H         6.1705209517       -0.5130383153       38.7426453657
  H         2.2767072777       -2.3046609804       18.4539529394
  H         2.0605727912       -1.3677923700       16.9937211757
  H         1.3379343776       -0.6959000267       18.5215140445
  H        18.5132505700        1.7013557478       22.9827890134
  H        17.5416022973        2.9608005896       22.4492580129
  H        17.2077544430        1.2644458238       21.8612571979
  C        12.3728647972        7.3416114251       10.2890351291
  N        12.0367988488        8.6792034602       10.2022878005
  O        10.8447465390       10.2636494869       11.3724005446
  S        12.9289802306        6.5313340883        8.8546386041
  C        12.1689534853        9.5026190943        8.9732682655
  H        12.2874883162       10.6049536063        9.3133425121
  H        13.1064680861        9.2329251550        8.5989120108
  C        11.0651303122        9.3308452122        7.9268575914
  H        10.9467794348        8.3662545043        7.5523253177
  H        10.0469772980        9.7239983512        8.1803923888
  H        11.3503265800       10.0190365664        7.1464040026
  H        -4.0665194637       14.4462192617       16.3688629755
  C        -3.5178378880       13.5433294064       16.3551472287
  H        -4.2479776760       12.7724091188       16.6092722400
  C        -2.3350298030       13.5301618253       17.3382739591
  C        -3.0389042976       13.3166742760       14.9294659747
  C        -2.8746481361       13.6807580882       18.8624477240
  H        -1.9431162220       12.5154934386       17.2292796878
  H        -1.5729756548       14.1915993772       17.0100176151
  H        -1.9380585831       13.3612916548       14.9246769133
  H        -3.5688821178       12.5248490581       14.5197715333
  H        -3.3919830591       14.1161812923       14.3229008636
  C        -1.7435362457       13.6111746572       19.8553963190
  H        -3.4549451956       12.7596615571       18.9597935928
  H        -3.5567352766       14.5501575095       18.9247475103
  C        -2.1629979250       13.6013271788       21.3763692429
  H        -1.1590363813       12.7739950204       19.7137413645
  H        -1.0703863607       14.4797556431       19.6847469082
  C        -1.0323519844       12.9855658144       22.2068216874
  H        -2.9728376823       12.9148539039       21.5161255055
  H        -2.5086852629       14.5440231038       21.6996456553
  C         0.1135892878       13.8936586756       22.4253226908
  H        -1.3993123633       12.5414093294       23.1270668062
  H        -0.5278120617       12.2073629497       21.6244949762
  C         1.2445443185       13.1883990773       23.1545498889
  H         0.5219912590       14.2718032169       21.4700515541
  H        -0.2040509970       14.7595498799       22.9209455028
  C         1.7599393439       11.8510531333       22.4836774261
  C         0.8835882151       12.4250695512       24.3224764195
  C         2.5704015317       14.0274461402       23.2593979433
  C         1.5783802250       10.7129430665       23.2933960471
  C         2.2693530188       11.5189947691       21.2199057691
  C         1.0505520815       11.1215678611       24.4928547467
  C         0.3259450048       13.1506786937       25.4258402266
  H         2.7349473305       14.4137315005       22.2913167386
  H         2.3676470465       14.8494064106       23.9147268432
  C         3.9374684234       13.3590319902       23.7275238236
  S         1.9422501050        9.2607381928       22.5837344496
  C         2.3595807857       10.1361632701       21.1103396135
  H         2.6210272793       12.3082987000       20.5442296762
  C         0.6502194753       10.5505124255       25.6812057437
  H         0.1566590861       14.2256072323       25.2392244254
  C        -0.0254368765       12.5713398722       26.6176100899
  H         4.1065735746       12.4328788924       23.1993655835
  H         3.9095128536       13.1642453871       24.7395241175
  C         5.2428429633       14.2292629519       23.6349195330
  C         2.7378277576        9.4097349891       19.7607708794
  C         0.0487581088       11.2022890094       26.7428167672
  H         0.7152438980        9.5064885804       25.7258581468
  C        -0.5022190458       12.9383082569       27.8456767453
  H         6.0772614178       13.8532279713       24.1964410580
  H         5.0466644069       15.2364207706       24.0767467835
  C         5.9813481846       14.4129705946       22.2973628351
  C         2.7567996366        8.0456369625       19.5512096237
  C         3.0978847165       10.2499218251       18.6133876906
  C        -0.4711868546       10.5395980348       27.9970942003
  C        -0.7158584807       11.8636018040       28.6683236883
  S        -0.6652153657       14.4171940145       28.6638953866
  H         6.6873660281       15.2271210354       22.4487218944
  H         5.2026027234       14.7665568099       21.5407439659
  C         6.6880855079       13.1158283258       21.8747863844
  N         2.4493874684        7.0619539510       20.5127497517
  C         2.9968209022        7.4680466409       18.3191146810
  C         3.4621685481        9.6598763882       17.4061844762
  H         3.1728342619       11.3234953466       18.6773665152
  C         0.6320126097        9.7404451665       28.6816144122
  C        -1.7559910857        9.7490510177       27.8055860918
  C        -1.1552202646       12.2152110337       29.9221512698
  C        -1.1598765199       13.6145346357       30.1109282499
  H         7.2936027484       12.8010061378       22.7141177150
  H         5.9497245235       12.2585034598       21.8262436362
  C         7.5369480270       13.3851239948       20.5724502796
  S         2.4718265419        5.5995840334       19.8468565860
  N         2.7039751613        6.1099794665       18.3228802923
  C         3.4019295101        8.2342869004       17.1785724628
  H         3.7180424982       10.3495421704       16.6374235186
  H         0.9281002506        8.9509831373       28.0084364275
  H         0.1967793442        9.3549021247       29.6813150744
  C         1.9174021278       10.3602592836       29.1292607542
  H        -1.6165533009        9.0253683067       27.0121563389
  H        -2.0129538540        9.0566132189       28.6438472312
  C        -2.9772599869       10.5944526154       27.4394620502
  H        -1.4306384570       11.4866657909       30.6102503866
  C        -1.4525918210       14.3029806589       31.4306339893
  H         8.0232328436       12.4246285221       20.2882974293
  H         8.2825912096       14.0535156701       20.7684419146
  C         6.6634012999       13.7713819871       19.3581956868
  C         3.4780499056        7.5396439489       15.9470709139
  H         2.4483534118       10.7527764223       28.2905719973
  H         1.7978076882       11.1837361341       29.7416677207
  C         2.8914183613        9.3756321106       29.7578856714
  H        -2.7942664009       11.0881183768       26.5390033218
  H        -3.1807985395       11.2903983479       28.2804553478
  C        -4.1724634039        9.5595705949       27.3760309834
  C        -1.3084490105       15.7363839657       31.5670130944
  C        -1.7541350480       13.5739913359       32.6904396420
  H         5.7495721185       13.1569699179       19.4799045707
  H         6.4121251322       14.8430644360       19.4336754508
  C         7.4241502606       13.3853845456       18.1247123961
  H         3.3950850293        6.4807610612       16.0924344024
  C         3.7896267354        7.9102333629       14.6617959595
  H         3.2527532205        8.5598237173       29.0127516519
  H         2.3432545536        8.9035004202       30.5752638937
  C         4.1352342377        9.9688518421       30.2381170171
  H        -3.9505657988        8.8014072222       26.6352048674
  H        -4.3872969783        9.0833694422       28.3092036896
  C        -5.3841989383       10.3080625509       26.9429393091
  N        -0.9687219870       16.6604429216       30.5118521477
  C        -1.6112531274       16.3820839353       32.7856579750
  C        -1.8149924580       14.2494027923       33.9338168870
  H        -1.9420867454       12.5187771133       32.6458421944
  H         7.8020494733       12.3190576961       18.1180350722
  H         6.5929816046       13.3592445955       17.4335861201
  H         8.1859633560       14.1771939630       17.8677782042
  S         4.2176556241        9.4919620738       14.1547214031
  C         3.8147928405        6.9392875171       13.5652820967
  H         4.0803387303       10.8994997734       29.7654791427
  H         4.0086394349       10.0984701957       31.3843458582
  C         5.3969107175        9.1828988933       29.9565143409
  H        -5.2827131077       10.7083498321       25.9141243007
  H        -5.5144563513       11.1537870992       27.5596278296
  C        -6.6669831290        9.4454244444       27.0390271361
  S        -1.5126103484       18.0645875419       30.9761187006
  N        -1.7253510884       17.7807664387       32.5756082289
  C        -1.8976408699       15.7067769702       34.0042178700
  H        -2.0026790809       13.7552592323       34.9172750859
  C         4.4221543280        8.8542646804       12.5007344652
  N         4.1780979981        7.5584950306       12.4226511646
  O         3.5991514907        5.7162093526       13.7158135526
  H         6.2047735097        9.8451104525       30.2578563679
  H         5.5168931794        9.0954991142       28.8569101874
  C         5.4979973188        7.9524452458       30.8501160047
  H        -6.5498225627        8.8154316581       26.1628623318
  H        -6.7360293296        8.8849636024       27.9598789675
  C        -7.8797356697       10.3201397398       26.9305287237
  C        -2.1412988934       16.4338578758       35.2017992021
  S         4.7854164479        9.8357002919       11.1235303741
  C         4.3572270174        6.8957543440       11.1405684383
  H         6.3967252892        8.1438652495       31.3669176696
  H         4.6589055327        7.8430437285       31.5045682176
  C         5.7364053050        6.7278370648       30.0298213289
  H        -7.5870028393       11.2484885851       26.4297251067
  H        -8.2789359712       10.5740961033       27.8745784029
  C        -8.9192128943        9.6455352915       26.0897098016
  H        -1.6096672270       17.3660188159       35.2521979610
  C        -2.7908051911       16.1952590871       36.3983201366
  H         5.1540828028        7.3319130439       10.5290810497
  H         4.7041003695        5.9463702067       11.3603181017
  C         3.0469506430        6.5764804911       10.4530776638
  H         4.9933194424        6.6077422667       29.2665283522
  H         5.4620226408        5.7658613316       30.5888356208
  C         7.2386807105        6.6953415755       29.6986274736
  H        -9.1360750003        8.7189039031       26.6149307757
  H        -9.7558612980       10.3286355202       26.2125338435
  C        -8.5224665044        9.4963344589       24.6494363080
  S        -3.4448007675       14.7096083218       36.9677536970
  C        -2.7948284037       17.2821202158       37.3386947598
  H         3.1648399265        6.0041428683        9.5651792385
  H         2.4712643819        5.8891199017       11.0881465014
  H         2.4913783114        7.5082701494       10.1587191921
  H         7.3809421823        7.2437115144       28.7369517274
  H         7.5822105046        5.7329679756       29.4237134447
  H         8.0097498471        7.1286276571       30.3575386123
  H        -9.3826503977        9.7230599182       23.9505195043
  H        -8.1897353050        8.4892919103       24.5154684952
  H        -7.7464637849       10.2303574400       24.3241309297
  C        -3.6889188162       15.5055161290       38.5209527504
  N        -3.3720940285       16.8245668577       38.4643876497
  O        -2.3087822802       18.4152828262       37.1282803481
  S        -4.2925969454       14.9252073057       40.0606353488
  C        -3.5449720923       17.7390212990       39.5532978897
  H        -3.5527808272       18.7700164538       39.2296194484
  H        -4.5530068820       17.5621047798       39.9989245350
  C        -2.3676939522       17.5772329300       40.5777540158
  H        -2.4353269096       16.6570382519       41.2221698267
  H        -1.3529262450       17.5960120023       40.1078316491
  H        -2.3305251553       18.4653029200       41.2713909403
