352
 i =    48600, time =    48600.000, E =        25.0226396824
  H        11.6004977058        7.8189753797       32.2350444884
  C        11.5085355192        6.7369374354       32.2757285053
  H        12.4054884856        6.2945956959       31.7844938812
  C        10.3328233391        6.2446008189       31.5037706591
  C        11.2909020581        6.2423411956       33.6403746761
  C        10.3116699149        6.5220335492       29.9276440805
  H        10.3331023981        5.1250394578       31.6630361943
  H         9.4303335432        6.6685300325       31.9443859043
  H        12.1875416943        6.2729519075       34.2535100942
  H        10.4892516257        6.7068395440       34.2382987792
  H        10.9799950623        5.1766541383       33.6735854438
  C        10.0005613712        5.2532149599       29.0762417628
  H        11.3413049743        6.7447961010       29.6976164150
  H         9.6592315994        7.3377266596       29.6250354441
  C        10.5341646550        5.3659014382       27.6051012603
  H        10.5252403571        4.5011164283       29.6252675495
  H         8.9589398757        4.9745025392       28.9812811847
  C         9.4491761865        4.8601339115       26.5861220706
  H        11.4359370840        4.8498683851       27.4149441433
  H        10.7806008663        6.3708326331       27.4246501175
  C         8.3017260965        5.9171468729       26.2921560601
  H         9.9162024823        4.6157245919       25.6483527666
  H         9.0253264742        3.9584294579       26.9881597155
  C         7.1051327603        5.4293487900       25.3652743889
  H         7.8323665788        6.1473264809       27.2556880379
  H         8.6726648487        6.8418300415       25.9500150024
  C         6.6469207898        4.0885595117       26.0132199461
  C         7.5795838557        4.6248407726       24.1957380918
  C         5.9223413365        6.4021645415       25.0718120495
  C         6.9564279692        2.9793568492       25.3410657343
  C         6.1464829862        3.7444017096       27.2490728656
  C         7.5140354322        3.2575912260       24.1176783898
  C         8.1339182979        5.2694917764       23.0443674964
  H         6.2774453449        7.0675342337       24.2420972133
  H         5.6692124658        6.9969261163       25.9521682632
  C         4.6433341473        5.7578115628       24.5096399890
  S         6.5953383075        1.4619513779       26.1252277055
  C         6.1045473597        2.4112521691       27.4454074507
  H         5.7406213389        4.4752148437       27.9171715124
  C         7.9568328146        2.5933950898       22.9753942872
  H         8.3031376566        6.3672411500       23.0801036789
  C         8.5578702608        4.5961209725       21.9653990796
  H         4.7892313490        5.4549130647       23.4186253557
  H         4.4318528833        4.9079287506       25.0130652164
  C         3.3801132398        6.5819989326       24.7063029073
  C         5.8295554237        1.7341921503       28.8206792666
  C         8.4957926458        3.2494427232       21.8879308661
  H         7.9346730818        1.5385730588       22.8995141539
  C         9.0739678226        4.9890451103       20.7667483640
  H         2.6116678523        6.1315565005       24.0865291239
  H         3.5378636602        7.6183086711       24.3613276537
  C         2.8673676260        6.5563535566       26.2088873488
  C         5.7952204261        0.3229402346       29.1030192228
  C         5.4389882092        2.5791860707       29.9696688312
  C         8.9361071192        2.5271362919       20.6778307815
  C         9.3101151528        3.8709057828       19.9991165186
  S         9.4838117606        6.5377607143       19.9687243389
  H         2.1686974328        7.3230777323       26.3192585657
  H         3.6575223147        6.6107884738       26.9472756722
  C         2.0886561727        5.2935106580       26.3786891768
  N         6.0949605335       -0.6640090564       28.1700494055
  C         5.4358864980       -0.1978022166       30.3360877464
  C         5.0817314130        2.0341401796       31.1884136217
  H         5.7564945455        3.5848519925       29.8202804103
  C         7.7317174104        1.7605423068       20.0759837703
  C        10.2302051436        1.5410366058       20.7862192691
  C         9.7007240742        4.2465691541       18.7193162389
  C         9.7733577656        5.6044519651       18.5263780637
  H         1.5066991770        4.9561733110       25.5564037092
  H         2.7211061696        4.4673720703       26.5540028619
  C         1.1243856790        5.3586252521       27.6695943432
  S         5.8706178311       -2.1840512342       28.8919014375
  N         5.3384997422       -1.5861604209       30.3493478753
  C         5.0269016424        0.5911385285       31.4171501850
  H         4.8521714501        2.6338103872       32.0051745849
  H         7.5287217940        0.9489650295       20.8316118980
  H         8.0912999833        1.1994921959       19.2459663190
  C         6.5930439173        2.6760611341       19.6609663865
  H        10.2883314015        1.0458391679       19.7709057155
  H         9.9866452535        0.7057601096       21.4611075337
  C        11.5529010424        2.1630195832       21.1902530522
  H         9.8449834458        3.5321397005       18.0297560278
  C        10.1660627166        6.2531495073       17.1941640452
  H         0.4548189427        4.5139508777       27.6841283871
  H         0.4583214542        6.2095862058       27.5250956481
  C         1.8205622097        5.4241244914       29.0529428833
  C         4.6764935428       -0.1265952559       32.6167444311
  H         6.8898006345        3.3325866969       18.9029751889
  H         6.0669496662        3.2712905193       20.4630026010
  C         5.5203053330        1.7628123979       19.0613782059
  H        11.5976350398        2.8035653118       22.0938348282
  H        11.9178089947        2.7685925381       20.3668663234
  C        12.6777292209        1.1893294467       21.5119732262
  C        10.2777630807        7.6401786714       16.9388922927
  C        10.4138780855        5.3608543301       16.0573115245
  H         2.3934417096        4.5358377501       29.4866987095
  H         2.5266659597        6.2239039154       29.1385059687
  C         0.7561233111        5.7171387932       30.1170513074
  H         4.5586959868       -1.1650964985       32.5010019132
  C         4.4444635681        0.3031115627       33.8210102283
  H         5.0503844657        1.0844504281       19.7646533319
  H         6.0364415881        1.0924390989       18.4683320135
  C         4.4533077110        2.5627030991       18.2383788463
  H        12.7302690724        0.9543313842       22.5629521994
  H        12.5879459582        0.2378653301       21.0244266110
  C        14.0298568335        1.7218133683       21.0361229446
  N        10.1360664785        8.6755908167       17.9531367591
  C        10.5453048827        8.2069620467       15.7333473180
  C        10.5662110673        5.9462422890       14.7976013261
  H        10.4419414191        4.2963403696       16.1370712808
  H         0.0005304331        4.8605599060       30.3118928311
  H         1.2461995594        6.0698039126       31.0497940178
  H         0.2229098425        6.6147208881       29.8263837188
  S         4.1687238588        1.9212475446       34.4366315088
  C         4.4208187723       -0.7191502298       34.8480878933
  H         4.1806422653        3.4848643963       18.7708501041
  H         4.8415221635        2.9643174849       17.2710888016
  C         3.2025055607        1.7792698388       17.8447831346
  H        14.0678636894        1.9342264290       19.9768609618
  H        14.7278866542        0.8734520731       21.0565194395
  C        14.6415144636        2.8662239394       21.8439032884
  S        10.2355893657       10.1541011379       17.3546617788
  N        10.5936829368        9.6751792992       15.8313958463
  C        10.7431416121        7.4644124849       14.5398537616
  H        10.5616152190        5.3560535573       13.8801494477
  C         4.1587343588        1.1544365916       36.0377676308
  N         4.2075371230       -0.1647328435       36.0156383255
  O         4.6362851144       -1.8973505201       34.6348151818
  H         2.6601781836        2.1982850298       16.9901631782
  H         2.4192752802        1.8926762511       18.5770736780
  C         3.3869550805        0.2978232783       17.6332691050
  H        15.5726435032        3.1311898656       21.3038486671
  H        14.0508109927        3.7134870621       21.8822010701
  C        15.1358447584        2.3818097373       23.2637866936
  C        10.9122915863        8.1813138326       13.3430456682
  S         3.3916154388        1.8487448251       37.4347160663
  C         4.3491247501       -1.0639174726       37.1876134731
  H         4.0096830565        0.0463257074       16.7678164595
  H         3.7678130905       -0.2332895956       18.5083716263
  C         1.9753349615       -0.3883061074       17.3151852749
  H        14.9636042144        1.3278794819       23.3893542499
  H        14.3962099383        2.8146021672       23.9644611834
  C        16.6066656044        2.6357567469       23.7097903743
  H        10.7154088290        9.1746364202       13.3819324560
  C        11.5308332109        7.9372623568       12.1514887074
  H         3.9253755527       -0.5651421353       38.0907529319
  H         3.7700918774       -1.9421694038       36.9243967405
  C         5.8087206429       -1.4489050309       37.4475279146
  H         2.0915403663       -0.7913006181       16.2938968375
  H         1.1581217397        0.2955764162       17.2132749662
  C         1.5960234171       -1.5254181166       18.2527174636
  H        16.6743540198        3.6705593097       24.0601933682
  H        16.7522720170        2.0641502081       24.6061643590
  C        17.6425330643        2.1282728356       22.7135675772
  S        12.1070662944        6.4619727416       11.6882082539
  C        11.6229343223        8.9807125739       11.1223140548
  H         5.8368645359       -2.0581686188       38.2847101143
  H         6.2332644392       -1.9051139091       36.5759509281
  H         6.4128405195       -0.5484501682       37.5099163043
  H         1.4410800927       -1.0538317327       19.2189046982
  H         2.2055037776       -2.4100159064       18.4310798128
  H         0.6944216516       -2.1287668046       17.9592890919
  H        17.2714223026        1.4495554208       21.9775008784
  H        18.4310413140        1.5685756962       23.3043537131
  H        18.1166172471        2.9967941702       22.2722140986
  C        12.4416991400        7.1442115644       10.0893244110
  N        12.1905832994        8.4517623645       10.0101035095
  O        11.1400431561       10.1217304723       11.2234122225
  S        13.2727824593        6.3407055594        8.7733833851
  C        12.3900321965        9.3059685258        8.8735510294
  H        12.4764434793       10.3286424962        9.2338639300
  H        13.3744092041        9.1970337592        8.4733945068
  C        11.3871981882        9.1033568722        7.7362112429
  H        11.8149679859        8.3160316942        7.1878208098
  H        10.4274633071        8.6995854785        8.1039021681
  H        11.2662930943        9.8454086208        7.0102324696
  H        -1.2694280137       13.5371193626       16.9755978355
  C        -2.0354954200       14.3433088537       16.7050514165
  H        -1.3272302711       15.0532046907       16.2777228031
  C        -2.7934876267       14.9973107391       17.8655822560
  C        -2.9660043980       13.7911296328       15.6597606691
  C        -3.1363295217       14.1002771675       18.9968584142
  H        -2.1483702223       15.7706391403       18.2798277550
  H        -3.6101990747       15.6107744383       17.5948748081
  H        -3.1540483026       14.5936881267       14.9715182510
  H        -2.5360112352       13.0166112335       14.9853491217
  H        -3.7835889734       13.4564033303       16.2420326578
  C        -1.8942668321       13.8894489790       19.8296915479
  H        -3.5442740742       13.1553975190       18.6577681299
  H        -3.8700379239       14.6418587666       19.5814709889
  C        -2.2845411692       13.4464837463       21.1991406322
  H        -1.2269312189       13.0971664628       19.4523047798
  H        -1.1333019035       14.6527970670       19.8000187577
  C        -1.2981600304       12.8055692199       22.0681801709
  H        -3.2315939845       12.9333754351       21.1583637519
  H        -2.5416398396       14.3662360511       21.8320615376
  C        -0.1974739120       13.7333963504       22.5765546457
  H        -1.8143995835       12.3225238315       22.8963549667
  H        -0.7713240403       12.0573652004       21.4199786379
  C         0.9868156837       13.0334694673       23.3451272298
  H         0.2731746937       14.1456154255       21.6226313816
  H        -0.4892652415       14.6205446597       23.1563668559
  C         1.4305457996       11.7034868891       22.6353215483
  C         0.6013356179       12.2612715635       24.6146652713
  C         2.2269871201       13.9882451848       23.4848658030
  C         1.0854556630       10.5855480547       23.3573618744
  C         2.0247986689       11.4113453094       21.3570450047
  C         0.6594688957       10.9249562999       24.6626125023
  C         0.0892357038       12.9771543278       25.7183227652
  H         2.4226291764       14.3049698882       22.4816364228
  H         1.9872780754       14.8773750596       24.0211652468
  C         3.5146359426       13.4335560425       24.1280093223
  S         1.5152589433        9.1343839522       22.5380497886
  C         2.1012778103       10.0453662992       21.1117278483
  H         2.1979357959       12.2621465261       20.6449443537
  C         0.3576847300       10.3181112234       25.8476542238
  H         0.0414823176       14.0602520615       25.6741684668
  C        -0.2824305328       12.3228553251       26.8666511713
  H         3.8513866258       12.6582542235       23.5264414563
  H         3.3474740876       13.0544651943       25.0865638984
  C         4.7161327493       14.4005702445       24.1978781399
  C         2.6058275551        9.3886988561       19.8679725674
  C        -0.0811241304       11.0098197921       26.9614505336
  H         0.4848169208        9.2363326158       25.9471584741
  C        -0.6759967961       12.6196559484       28.1365331100
  H         5.4608673681       13.9628315837       24.9226454118
  H         4.5302931953       15.3641343905       24.7067588667
  C         5.5307505497       14.6213276921       22.8483234887
  C         2.5267148493        8.0153223887       19.5929647432
  C         2.8297815967       10.2882032726       18.6829395190
  C        -0.5938471298       10.2914031217       28.1841183561
  C        -0.8787867073       11.5750090436       28.9645254927
  S        -0.8614770871       14.1669013695       28.9319067412
  H         6.1414712096       15.5131741589       22.7766902768
  H         4.7035721812       14.8647118124       22.2277629341
  C         6.3367167655       13.3758094943       22.2706544044
  N         2.2520620658        7.0120469138       20.5551186382
  C         2.7447163213        7.5259644187       18.2963758946
  C         3.3086897373        9.7255887385       17.4775083672
  H         2.8185433373       11.3722290424       18.8763485048
  C         0.4624550458        9.5124579226       29.0106694222
  C        -1.8504809813        9.4223582647       27.9805856831
  C        -1.2851618613       11.9316779306       30.2669922610
  C        -1.2768496817       13.3224287995       30.3884518944
  H         7.2823880404       13.3635956302       22.7876132230
  H         5.7428291891       12.4872603875       22.5342521436
  C         6.6827863533       13.3329080231       20.7550040103
  S         2.0907437174        5.6112117358       19.7403732498
  N         2.5986650371        6.1640068949       18.3388851785
  C         3.2778605491        8.2444566598       17.2398604295
  H         3.8204784359       10.3925282427       16.7781677244
  H         0.8516622503        8.6989013394       28.3477970736
  H         0.1274545534        9.1108229795       29.9355719129
  C         1.7976232669       10.2790862713       29.3172193381
  H        -1.5606762141        8.4750098141       27.6677428989
  H        -2.2075120969        9.1315765080       29.0240760592
  C        -2.8363503082       10.0605187236       27.0921248324
  H        -1.4809421238       11.1974586519       31.0569588283
  C        -1.7381416229       14.0587616049       31.5682892705
  H         7.3220904404       12.3958356721       20.6321578364
  H         7.2882559735       14.1849777687       20.6167187975
  C         5.3259415158       13.2699282005       19.9778341504
  C         3.4986246429        7.6782969511       15.9917916002
  H         2.1863300491       10.6216830015       28.3792349661
  H         1.6382498437       11.2311986281       29.9650482786
  C         2.8295527009        9.4242816990       30.0364524538
  H        -2.5193298980        9.9474522212       26.0383420110
  H        -2.9735058353       11.1091396905       27.3750949751
  C        -4.3331070004        9.6014510697       27.3155038458
  C        -1.8472906962       15.4955275459       31.8151587551
  C        -2.0665634749       13.2830995779       32.7746263716
  H         4.7299772705       12.3107974047       20.0450444945
  H         4.6231519489       14.0002473098       20.3606195091
  C         5.6074922388       13.5096374874       18.4861502952
  H         3.3607877683        6.6351594202       15.9875040793
  C         3.8883854251        8.1635580855       14.7263541732
  H         2.7948754659        8.5118442268       29.3949340099
  H         2.4095398277        9.2337176406       31.0435338464
  C         4.2099375686       10.0858897394       30.1322990028
  H        -4.4655797055        8.5504410305       27.0293794151
  H        -4.4632885033        9.7110479418       28.4322005009
  C        -5.4083001002       10.4049389111       26.5330240209
  N        -1.6723274780       16.3695129490       30.7278572027
  C        -2.0957228701       16.1535236628       33.0145264747
  C        -2.2989852475       13.9069816957       33.9892664738
  H        -2.0599996311       12.1909728212       32.7435824399
  H         6.3176102274       14.3001019456       18.3430540112
  H         5.9860610104       12.6317397632       18.0344691163
  H         4.7387604820       13.6856564671       17.9159963108
  S         4.0525652379        9.7890211460       14.1947066852
  C         3.9738587566        7.1327544320       13.6373945151
  H         4.7909063894       10.1241785214       29.2558427275
  H         4.0494905508       11.0684405549       30.6058581104
  C         5.1807928564        9.2624676497       31.0550298033
  H        -4.8546801753       10.8771744105       25.7228654030
  H        -5.6858673450       11.2245826148       27.1991254720
  C        -6.5849993384        9.5823127293       25.9485503116
  S        -1.7189932262       17.9198784786       31.2536098468
  N        -1.9551766612       17.5386143368       32.8745143836
  C        -2.2894377922       15.4115327678       34.1672232037
  H        -2.4889331521       13.2479218522       34.8242801875
  C         4.3623914658        9.1191703283       12.6193347082
  N         4.2924873963        7.7555467451       12.4922463102
  O         3.6812035548        5.9109568936       13.7655184901
  H         5.1163628798        9.6801565696       32.0202859433
  H         6.1979206326        9.3351262442       30.7723916057
  C         4.8648334853        7.7325653010       31.0357701885
  H        -6.0806179029        9.0762733899       25.1377632008
  H        -6.9370317198        8.8119861387       26.6226516316
  C        -7.7134448664       10.5378740092       25.5524675772
  C        -2.5770194322       16.1800503035       35.3409193435
  S         4.9423116843       10.0920114260       11.2901681884
  C         4.3455945903        7.0235417533       11.2599355958
  H         3.9678603398        7.5334625113       31.6132850510
  H         4.8301957903        7.4515081496       29.9320891847
  C         5.8965562951        6.8805056401       31.7879463809
  H        -7.3447862842       11.4372411360       25.0238323301
  H        -8.3119473851       10.7894011773       26.4594055869
  C        -8.8476327029        9.9127982903       24.6805023059
  H        -2.0844652925       17.0919295760       35.4086872786
  C        -3.1520776921       15.7993815486       36.5173151195
  H         5.1028540123        7.3983534539       10.6179594784
  H         4.6784015439        6.0119249047       11.4437214323
  C         2.9311942076        7.0523760118       10.5528861137
  H         5.8999263890        7.1331134915       32.8863185943
  H         6.8470433167        7.1274089096       31.4890708791
  C         5.5358794500        5.4441867885       31.5390874537
  H        -9.1760608991       10.4422543932       23.7848133108
  H        -8.5504084857        8.9650551426       24.1861374317
  C       -10.1289649714        9.6806941763       25.4544557948
  S        -3.8643457955       14.2730177088       36.9431163432
  C        -3.1751696393       16.8025527887       37.6400153205
  H         2.7465403577        6.0358067015       10.1457862938
  H         2.1165256919        7.1538448387       11.2943420457
  H         2.8999300768        7.7532447796        9.7339958392
  H         4.7600067760        5.2246007294       30.8308431568
  H         5.3970384012        4.8565625113       32.4174318026
  H         6.3904425989        4.9253712879       31.1436254818
  H       -10.7880992721        9.0916349906       24.8184079176
  H       -10.6221794982       10.6294955296       25.6853831425
  H        -9.9295029666        9.1758454664       26.4008520264
  C        -4.2617726989       15.0346782134       38.5241613436
  N        -4.0088638491       16.3307096665       38.5948109038
  O        -2.7591585443       17.9661639708       37.4909230657
  S        -5.3278893240       14.2158891455       39.6690812047
  C        -4.1176907754       17.0326953487       39.8711133083
  H        -3.8603139900       18.0747902634       39.7556475713
  H        -5.0606294293       17.0058719349       40.2676101341
  C        -3.0731685478       16.4578265562       40.8345213245
  H        -2.9705934749       17.0909149444       41.7767466470
  H        -3.2281770106       15.5633212386       41.3108422321
  H        -2.0467701715       16.4292976972       40.3429917459
