352
 i =    49500, time =    49500.000, E =        25.3877827917
  H         9.4555443507        7.0970732233       32.3256421246
  C        10.5214991923        6.8676206835       32.3853031248
  H        11.2055351594        7.7254063074       32.2298011034
  C        10.8690308884        5.8375757945       31.2887405327
  C        10.7885753464        6.2401054728       33.7286402413
  C        10.5583717218        6.3205290822       29.8000621906
  H        11.9653554770        5.6287768088       31.3450294901
  H        10.2176839392        4.9911440746       31.3584157507
  H        10.4579893885        6.8189341082       34.5729182805
  H        10.1044860265        5.4249470139       33.7338006230
  H        11.7299951437        5.7942177902       33.9577309872
  C        10.4665057001        5.2065396758       28.7186175841
  H        11.3590167728        6.9764389908       29.4982097228
  H         9.6670551738        7.0009265789       29.9329832904
  C        10.8078283219        5.6613585429       27.3362863000
  H        10.8667842340        4.2399225855       28.9750416525
  H         9.3615399758        4.9589254570       28.7916529174
  C         9.8639564580        5.0283041743       26.3000426332
  H        11.8503478612        5.2984278688       26.9852135448
  H        10.6910924822        6.7236832709       27.1572621952
  C         8.5766701916        5.7901931733       26.1199504907
  H        10.4147603138        4.9745388292       25.3420437973
  H         9.5104468951        4.0610286190       26.5917548743
  C         7.3890233877        5.0471492998       25.4804588424
  H         8.1941670323        6.0824512725       27.0743521657
  H         8.7562024959        6.7173980583       25.5948976774
  C         6.9745972911        3.6541316924       26.1278313785
  C         7.8804542115        4.3337310438       24.2942329163
  C         6.1839546863        5.9416156813       25.1610619733
  C         7.3361002839        2.5612135146       25.3341538123
  C         6.4265635472        3.2777522828       27.3153735816
  C         7.9092132859        3.0051465834       24.1162084655
  C         8.3297306011        5.0218819899       23.1786783280
  H         6.5773036646        6.7557784342       24.6247207627
  H         5.8027829600        6.2865706110       26.1625379003
  C         5.0496742308        5.2698806356       24.3573041906
  S         6.8241275640        1.0907239912       26.0597422131
  C         6.2814084894        1.9651430294       27.4653031332
  H         6.2603108774        4.0346875700       28.0621760901
  C         8.3395184934        2.4413856392       22.9544431308
  H         8.4478907654        6.0811381979       23.2859282286
  C         8.7712279908        4.5245167357       22.0133457932
  H         5.5850081825        5.0250549741       23.3858596535
  H         4.7244290971        4.3596747769       24.9054387195
  C         3.9119088502        6.3225074163       24.1412672453
  C         5.8942237733        1.3780543896       28.8454090390
  C         8.8301530314        3.1609594360       21.8626678071
  H         8.4402463465        1.3884269638       23.0672399044
  C         9.0726923571        4.9860420878       20.7509701185
  H         3.3532797923        5.8533408652       23.3328353825
  H         4.4105721723        7.1589266890       23.6866912514
  C         3.1460681316        6.5505658063       25.4335606617
  C         6.0058210812        0.0405513799       29.1808669399
  C         5.4273127740        2.2879105906       29.9263511361
  C         9.2576101198        2.5163682683       20.5924838264
  C         9.3999289533        3.9305554866       19.9181702766
  S         9.1715603322        6.5240475713       19.9129406205
  H         2.4203069197        7.3470270760       25.2515485991
  H         3.8640851428        7.0412811152       26.0358438642
  C         2.4310191174        5.3232574897       26.0106508447
  N         6.3740111327       -0.9190010272       28.2350227319
  C         5.7325027269       -0.4120588168       30.4485980251
  C         5.1387741913        1.8589902328       31.2055247191
  H         5.2548506321        3.3325133149       29.7265064234
  C         8.1650504867        1.6226799852       19.9850237101
  C        10.5710171539        1.7028220483       20.5923892278
  C         9.7317388739        4.3221643273       18.6107162415
  C         9.7457305725        5.7021162409       18.5189345256
  H         1.6849878710        4.9663814322       25.2374238240
  H         3.0541762424        4.4886425547       26.2536401549
  C         1.7275697027        5.7525092267       27.3143064498
  S         6.3489222781       -2.3352529932       29.0069621369
  N         5.8663360387       -1.8196542829       30.5263571253
  C         5.2995853688        0.4187231245       31.5063751351
  H         4.8809178780        2.6272161567       31.9418222839
  H         7.8462333682        0.8906221619       20.6696859473
  H         8.6877112654        1.0545086438       19.1374510170
  C         6.9178330327        2.3712534500       19.4809733732
  H        10.7552713674        1.4411378492       19.5459889895
  H        10.5601113490        0.8578076280       21.2316284045
  C        11.7424471773        2.5875318524       20.9356679928
  H         9.8703508577        3.5464162667       17.7701902869
  C        10.0868614984        6.3977395489       17.2153753289
  H         0.8186523207        5.1944375319       27.3155078906
  H         1.3064585985        6.7282807043       27.1502316853
  C         2.5840272176        5.6954595362       28.5621783686
  C         4.9579788303       -0.1866369540       32.7606476129
  H         7.2556507238        3.1384903675       18.7051039017
  H         6.3214166942        2.8730449606       20.2208465062
  C         5.8960630575        1.4915087346       18.6746545425
  H        11.5010225530        3.1083319720       21.8582014101
  H        11.8488780833        3.3027550375       20.1319931367
  C        13.0522684559        1.7867554156       21.2334685924
  C        10.2251836763        7.8575578691       17.0990271564
  C        10.3869972151        5.6459740315       15.9817739881
  H         3.0063481734        4.6610947074       28.5197513842
  H         3.3727257763        6.4998496714       28.4534619572
  C         1.7398005934        5.9527059618       29.8438462406
  H         5.0527673840       -1.2483954628       32.8451754177
  C         4.6021715354        0.2603084993       34.0251403551
  H         5.4835926957        0.8080191977       19.4925496340
  H         6.5032751312        0.8805321522       18.0420536536
  C         4.8361083696        2.2157971794       17.8045807202
  H        12.8782629160        1.0554406821       22.0041610905
  H        13.2512052653        1.1307879693       20.3639620957
  C        14.3094657888        2.6990134676       21.5576960147
  N        10.1972939186        8.7811697861       18.1766304935
  C        10.5172252331        8.4592227226       15.8974803061
  C        10.7505045363        6.2737486133       14.7946275184
  H        10.3228964721        4.5035455152       15.9804770631
  H         0.8940250194        5.2065126454       29.8020708663
  H         2.3816336560        5.8569631000       30.7305454302
  H         1.2101838361        6.9217945101       29.6839217271
  S         4.2930967452        1.9389123664       34.4949725777
  C         4.5610994566       -0.7187823082       35.1723606075
  H         4.5154852787        3.1712775812       18.3386319872
  H         5.0555750826        2.5894483493       16.7785640193
  C         3.5633176435        1.3428445693       17.5630454537
  H        13.9284466643        3.7238457726       21.3026224036
  H        15.2461536364        2.4372161410       20.9855714418
  C        14.6573077683        2.7365903408       23.0657313733
  S         9.9992639006       10.1923279398       17.5206117941
  N        10.3034487825        9.8150759819       15.9804188129
  C        10.8129186434        7.7848695582       14.7111881911
  H        10.9233969442        5.7380619824       13.9159828870
  C         4.1462262808        1.3082519844       36.1201842623
  N         4.0423895056       -0.0363865574       36.2690854442
  O         4.6327469434       -1.9528779564       35.0373840240
  H         2.8589138120        1.9690382666       17.0524802526
  H         3.2316185996        1.1074318215       18.5262355053
  C         3.8638843276        0.0822909020       16.8229042520
  H        15.1904543934        3.6555467766       23.2656362731
  H        13.7530672268        2.7271962595       23.6247051566
  C        15.5523878327        1.5636046542       23.5674785771
  C        11.0186600230        8.5257898144       13.4868004744
  S         3.5693228737        2.2962169683       37.5047927011
  C         3.6209662056       -0.6562049307       37.5247921636
  H         4.2604785342        0.3033877420       15.8527605358
  H         4.6094812119       -0.5487953567       17.2922794350
  C         2.6235268463       -0.7801259154       16.5569070256
  H        15.5764226154        0.8658040720       22.7488918564
  H        15.2751274356        1.0667923818       24.5363444854
  C        16.9778447010        2.1248224970       23.6725425208
  H        10.8260182516        9.5712316969       13.4928022595
  C        11.4331045688        8.1277220061       12.2389097476
  H         2.7690345557       -0.2401144391       38.0521666299
  H         3.2016704664       -1.6193037323       37.2772953738
  C         4.8521929806       -1.1090215495       38.1785064070
  H         2.8655659909       -1.6304161204       15.9678764181
  H         1.8629309861       -0.2882100688       15.9855955465
  C         1.9138111806       -1.3478391720       17.8104840619
  H        17.0700408623        2.8264049684       24.4585850704
  H        17.6058238358        1.2539843327       23.9121758358
  C        17.6584312435        2.8862876417       22.4800802000
  S        11.8827034427        6.5281293067       11.7191785398
  C        11.5171731752        9.1640562772       11.1774081708
  H         5.4854250526       -0.3205978397       38.5517728659
  H         4.5968706474       -1.7978079634       39.1107893113
  H         5.4860224447       -1.6488477974       37.5011094210
  H         2.7278381369       -1.5684919026       18.5991859424
  H         1.4831763919       -2.3393551809       17.6293613028
  H         1.2135859209       -0.5955074152       18.2988557532
  H        17.6051797610        2.2607996843       21.6078608959
  H        18.7053557125        3.0453399501       22.6250583229
  H        17.2178112885        3.8328585223       22.2369310156
  C        12.2771344568        7.3160653544       10.0783565862
  N        12.1183381955        8.6727777590       10.1047461096
  O        11.2011441143       10.3669538437       11.3053621600
  S        12.8308314896        6.5557992227        8.6012571195
  C        12.4937452484        9.5495351551        9.0254007436
  H        12.9186856896       10.4905195236        9.4635468073
  H        13.2467032827        9.1425206578        8.3585881249
  C        11.2986592991        9.8588145535        8.1351790109
  H        10.7851708192        8.9743853500        7.8823301907
  H        10.5492335225       10.5479813651        8.5596036094
  H        11.6701836496       10.3592788095        7.2566183028
  H        -0.5968099482       13.8471815138       16.4114360395
  C        -1.4524221333       14.4401291445       16.1314705960
  H        -1.0747004882       15.0893888579       15.3432820206
  C        -1.9930517515       15.1992713154       17.3849953803
  C        -2.4882838308       13.4974027790       15.4833771129
  C        -2.5227988148       14.2561334419       18.4313976202
  H        -1.3249089345       15.8118553024       17.8668465185
  H        -2.8879842367       15.8113658508       17.1241874290
  H        -2.2395551822       12.4882834354       15.8249636526
  H        -3.4812734744       13.8053323840       15.8623489245
  H        -2.4768474518       13.6025840625       14.3727933363
  C        -1.4548990339       13.5860804578       19.3150921378
  H        -3.1785936382       13.4825884345       17.9219588971
  H        -3.2314457742       14.8581468815       19.0190832353
  C        -1.9329789164       13.6962719571       20.8353375401
  H        -1.3831272547       12.5200913189       19.1035864327
  H        -0.4910055188       13.9317316699       19.1109631149
  C        -0.9777896501       13.1158139017       21.8337357148
  H        -2.7931345381       13.1223996195       21.0214052257
  H        -2.3505938544       14.6892047658       21.1034040687
  C         0.3564016714       13.8792689809       22.0149880847
  H        -1.4589300519       13.0576924766       22.8150167320
  H        -0.7213484811       12.0780981386       21.5912554353
  C         1.3604387447       13.1033487942       23.0309223346
  H         0.7775006793       13.9338866757       21.0718017012
  H         0.1851659993       14.8847103174       22.3758605381
  C         1.6768131082       11.7060482080       22.4362357034
  C         0.9295532871       12.3761035892       24.2662231776
  C         2.5371691767       14.0669016639       23.3264896148
  C         1.3724371852       10.6069106947       23.1804241871
  C         2.1783931823       11.3885853563       21.1733536235
  C         0.9229220927       11.0520159784       24.3586467052
  C         0.3741058855       13.0995164905       25.3239533921
  H         2.8861211461       14.5634790600       22.4184741512
  H         2.3012770168       14.8972706710       23.8864478050
  C         3.8562728621       13.3478446926       23.9047080302
  S         1.6112543421        9.1115902308       22.3176174015
  C         2.2297438040       10.0704454127       20.9515719624
  H         2.4087537711       12.1731317563       20.5423014625
  C         0.3882715553       10.4724450868       25.4982840142
  H         0.3744541538       14.1666542763       25.1052567718
  C         0.0449875258       12.5350852853       26.5272539004
  H         3.9832594414       12.4355004481       23.3490210451
  H         3.6756208070       13.0913391876       24.9099156455
  C         5.0581617135       14.3433074926       23.9265987595
  C         2.6888832879        9.3939719925       19.5919591777
  C         0.0394753345       11.1819946230       26.6578685561
  H         0.3583281004        9.4248737591       25.4683734198
  C        -0.3867950720       12.9004231905       27.7855510607
  H         5.7846074882       14.0515842460       24.7237266637
  H         4.7388228021       15.3510302630       24.1172546181
  C         5.6149509408       14.3847218561       22.5032469785
  C         2.6167965733        8.0203392223       19.2661378477
  C         3.0260014431       10.2311145413       18.4828391293
  C        -0.3521721144       10.4125439198       27.8806748762
  C        -0.5274632751       11.8108801491       28.6095521912
  S        -0.6408141882       14.4030321516       28.6671371420
  H         6.5413611990       14.8954277400       22.4665821072
  H         5.0139053923       14.9092585664       21.9161060191
  C         6.0467342926       13.0826157934       21.9325129531
  N         2.3899259842        6.9846298799       20.1890038470
  C         2.9066009377        7.4936281827       18.0095050812
  C         3.2987501659        9.7719032034       17.2085173905
  H         2.9650688816       11.2997166667       18.6091211695
  C         0.9015506618        9.7027597882       28.3985582211
  C        -1.6040839778        9.4895968966       27.7814930744
  C        -0.9244606844       12.1417523481       29.9298536822
  C        -1.0164293974       13.5025281665       30.1537364990
  H         6.6970489947       12.6670826363       22.8055781121
  H         5.2071254109       12.3984143759       21.7685517272
  C         6.8802629600       13.2737364027       20.7287075071
  S         2.4034737984        5.5782358414       19.3694724683
  N         2.7706292932        6.1513265721       17.8651080789
  C         3.1963339402        8.3197941341       16.8959457451
  H         3.3606403178       10.5167066784       16.5032406603
  H         1.2609020375        8.9513737950       27.6825200593
  H         0.4506673843        9.2146444075       29.2123207433
  C         1.9654824120       10.5730069338       29.0610514835
  H        -1.5063779182        8.7213974735       26.9754349875
  H        -1.7975905435        9.0121249351       28.7425068302
  C        -2.8653034748       10.3237187093       27.5044175479
  H        -1.2042561964       11.2979126118       30.5012578684
  C        -1.5910377934       14.1102767528       31.3965193607
  H         7.4897611235       12.3976839946       20.6704715720
  H         7.5396122689       14.1716051670       20.7186602332
  C         6.0824743244       13.3922103722       19.4342860617
  C         3.4748264967        7.6950072444       15.6846226313
  H         2.3311368622       11.2644297369       28.3434827834
  H         1.5688368260       11.1465424477       29.9138388719
  C         3.1744641693        9.7554189676       29.5172774512
  H        -2.7558982869       10.7890915848       26.5807498983
  H        -2.8934240337       10.9838185843       28.3558776751
  C        -4.0793913229        9.4520732281       27.3656341432
  C        -1.5674518613       15.4919988169       31.6704453830
  C        -1.8594313143       13.2378677469       32.6423184888
  H         5.3675240629       12.5756178868       19.2859284419
  H         5.4526381713       14.2599483793       19.5553087425
  C         7.0417319731       13.4449958575       18.2439622723
  H         3.0504562438        6.6907561701       15.6628117987
  C         3.8902560535        8.2132163834       14.4421506829
  H         3.6995408202        9.2421941065       28.6731406033
  H         2.9166859875        8.9575448907       30.1854573058
  C         4.2499998997       10.7206736810       30.0904294566
  H        -3.8527925062        8.7400779129       26.5453499017
  H        -4.2196974887        8.8557956271       28.2886639697
  C        -5.3010983877       10.2186315883       26.9896907700
  N        -1.1470688826       16.5323344692       30.7321157369
  C        -1.8725412666       16.0516928071       32.9172773038
  C        -2.1351297291       13.8047465145       33.9039233678
  H        -1.7254066341       12.1127209597       32.5995919181
  H         7.7024889284       14.2920417502       18.3746616851
  H         7.7764060181       12.5772106820       18.1885717667
  H         6.4293534130       13.5553882951       17.2982921983
  S         4.3212872221        9.8200486852       14.0805814859
  C         3.8932902633        7.2321971407       13.3427044259
  H         4.2586644959       11.6743568187       29.6711669569
  H         4.1074172593       10.7163743286       31.1630905031
  C         5.6269654205       10.0855479647       30.0155161593
  H        -4.9976866387       11.0883016125       26.3146920209
  H        -5.5825263942       10.6391787847       27.9832290080
  C        -6.3390581593        9.3831310636       26.2298626025
  S        -1.3278607481       18.0154153409       31.4577226411
  N        -1.8166988863       17.4755246798       32.9205255570
  C        -2.2743251059       15.2795981951       34.0411517239
  H        -2.1956218192       13.1112463550       34.7805807735
  C         4.4439312217        9.2467752410       12.4131606623
  N         4.4006738445        7.8737274849       12.2648739702
  O         3.6351023855        6.0283790343       13.5537341748
  H         6.2557939957       10.8158141922       30.5624371803
  H         5.9567387168        9.9615015518       28.9444778481
  C         5.7759505615        8.7299683458       30.7764081274
  H        -5.8472930633        8.7347322414       25.4742657915
  H        -7.0409435056        8.8456046627       26.8915394237
  C        -7.0918183308       10.4391160484       25.4341221692
  C        -2.6217745274       15.9497050185       35.2769943395
  S         4.7430463570       10.2185588595       10.9673052579
  C         4.5066444940        7.1836538100       10.9684574890
  H         6.1138382730        9.1144216487       31.7303547628
  H         4.7646628936        8.2857400169       30.9576778640
  C         6.5705064084        7.7706472581       29.9217991014
  H        -6.5680452096       10.6805017096       24.5122087449
  H        -7.1840926503       11.3204409966       25.9888080645
  C        -8.4514368956        9.9883451772       25.1765008855
  H        -2.2525271798       16.9516981482       35.1807338599
  C        -3.2377646299       15.5374224193       36.4551887315
  H         5.2091408464        7.6591293168       10.3282670121
  H         4.8860173777        6.2234631591       11.1436831270
  C         3.1468176528        7.1027838330       10.2444828171
  H         7.6391835718        8.1645824247       29.8059106584
  H         6.1923697979        7.7448044758       28.9175556043
  C         6.5211385661        6.2666987395       30.4141696410
  H        -8.7949931590       10.3504642490       24.2192439294
  H        -8.5515246208        8.9446690867       25.1650929353
  C        -9.5067344830       10.2435138959       26.3109152845
  S        -3.8852701050       14.0533847961       36.9040824279
  C        -3.3769603878       16.5425142226       37.4651091493
  H         3.2330073423        7.8547036857        9.4551951334
  H         2.9661352036        6.1036975746        9.8072505021
  H         2.2939895996        7.4328211955       10.8720615046
  H         6.9951197978        6.2363769932       31.3390482368
  H         7.0652710382        5.6364010652       29.7375980411
  H         5.5289076953        5.8275849294       30.5644601875
  H       -10.4854567437        9.9007078646       26.0455994494
  H        -9.6001950186       11.3184334574       26.5352282280
  H        -9.2213406227        9.6820394779       27.1541172643
  C        -4.2023121598       14.7631858343       38.4511110877
  N        -3.7555951694       15.9583365075       38.6416315730
  O        -2.9077038466       17.6522440334       37.3420494394
  S        -4.9254778921       13.9266847584       39.8253484866
  C        -3.9715580570       16.7509448820       39.8095445604
  H        -3.9441276213       17.9439970648       39.6237281431
  H        -4.9218278949       16.6465257629       40.2418804877
  C        -2.9167567722       16.3984844979       40.8960627504
  H        -3.1336785907       15.3332839429       41.1573419841
  H        -1.9955959324       16.3940373331       40.3973552461
  H        -2.9949542415       17.0720867508       41.8170134401
