352
 i =    76100, time =    76100.000, E =        24.9557525111
  H         9.8632629814        5.4143601107       31.7651809070
  C        10.5267471317        6.2607168900       32.0380867939
  H         9.6211087637        6.9336001642       32.2727269099
  C        11.3693143188        6.7647804380       30.9020860876
  C        11.2893883682        5.8696319568       33.3111227468
  C        11.2676454238        5.9541929838       29.6834636683
  H        11.0477417292        7.7969746193       30.8218251293
  H        12.4112763424        6.6647954112       31.2319008528
  H        10.6111843960        5.4807429484       34.0485796529
  H        11.8907529378        4.9429141934       33.3232664215
  H        11.7901026918        6.7289557769       33.8449374143
  C        10.0416362279        6.2851685972       28.8414555999
  H        11.2653257063        4.9020957745       29.9208666957
  H        12.1267238939        6.2425934813       29.1128740673
  C        10.3754497088        6.2478164569       27.3886168030
  H         9.1456705662        5.7181272366       29.0270925494
  H         9.6546189013        7.3127758081       29.0913979811
  C         9.4582391078        5.2882440522       26.6223494179
  H        11.4267584311        6.0079939288       27.3193788619
  H        10.4308971455        7.2543851435       26.9551964620
  C         8.2392555189        6.0559408181       26.1403019172
  H         9.8924899231        4.8308515331       25.6706985646
  H         9.2261760673        4.4569788537       27.2071164739
  C         7.3113723825        5.1167912584       25.2992666522
  H         7.6757458462        6.3107277230       27.0106395486
  H         8.4876109011        6.9485374838       25.6471876515
  C         6.9808831947        3.7635033784       26.0630712478
  C         7.8835952509        4.3549568311       24.1982801733
  C         6.0290846107        5.8718008892       24.7564206369
  C         7.3725666596        2.6601309578       25.3101415592
  C         6.4380659939        3.3435103077       27.3038995048
  C         7.8954964900        3.0103510529       24.0782381172
  C         8.2598649198        5.0434371204       23.0332938093
  H         5.5987183940        5.3272532166       23.9242758036
  H         6.3340308995        6.8223241104       24.4519801199
  C         4.8402268725        6.0422340899       25.7353690652
  S         7.0430507094        1.1675373995       26.0388799176
  C         6.4378675233        1.9899081957       27.4739948023
  H         6.0814635296        4.1182585366       28.0272629291
  C         8.3230374937        2.3839907754       22.9308493738
  H         8.3363814442        6.1319729612       23.1242275542
  C         8.7262250307        4.4509032077       21.8841460557
  H         5.2631943981        6.4097431920       26.7807250140
  H         4.2774013760        6.8330995311       25.3955155401
  C         3.8363832946        4.7775704484       25.8584355197
  C         5.8882449116        1.3253879141       28.6769004048
  C         8.6864008804        3.1157185967       21.7984885428
  H         8.1869110067        1.2717746598       22.9450795899
  C         9.1460898801        4.8062831419       20.6264060393
  H         4.2987665507        3.8190455681       26.1279669131
  H         3.5182231438        4.6106839662       24.7958267666
  C         2.6706015500        5.2431066128       26.7485165118
  C         5.9140266493       -0.0243336164       28.9781268381
  C         5.3846021871        2.1687496764       29.8113566251
  C         8.9210875947        2.4577796728       20.4199867135
  C         9.2591341584        3.7392731047       19.7435687169
  S         9.5871778582        6.2835534359       19.9622512966
  H         1.7246062676        4.9879365944       26.3143132814
  H         2.6653091985        6.3227485881       26.7542017510
  C         2.8311229595        4.8260039433       28.1786149393
  N         6.4069996602       -0.9480233444       28.0311931037
  C         5.6360039547       -0.5578193177       30.2054646135
  C         4.9613811998        1.6049062412       31.0391611884
  H         5.2389990744        3.2544677306       29.7268015365
  C         7.7936423889        1.8585130897       19.5165765373
  C        10.2660877341        1.6295328721       20.5435093979
  C         9.6899487217        4.1764404537       18.4763056235
  C         9.8700957308        5.5521384035       18.4108209687
  H         2.4150020607        3.8061777823       28.1646604626
  H         3.8193031590        4.6611612158       28.5810877870
  C         1.8977239517        5.6573162124       29.0592357514
  S         6.3065659635       -2.4368990193       28.7313367213
  N         5.8631649255       -1.9469473825       30.2428822336
  C         5.1539303335        0.1823724960       31.3243350178
  H         4.6666352957        2.2756376571       31.8685357784
  H         7.4347910932        0.9084346286       19.9582485326
  H         8.2230364909        1.7244525184       18.5613954151
  C         6.5723473638        2.8905562730       19.2609648918
  H        10.5557382143        1.2048161000       19.5708666935
  H        10.1670383982        0.7739772070       21.1792712908
  C        11.4615247041        2.5317673892       20.9168575231
  H         9.9318170726        3.5128033368       17.6973610493
  C        10.2480647677        6.3272574808       17.2231454345
  H         1.1953535410        6.0434768806       28.3696305788
  H         2.5009089260        6.4309800828       29.5348222755
  C         1.1739574383        4.9179269557       30.1089599928
  C         4.9301874497       -0.4112128199       32.5817782479
  H         6.7362564239        3.3594144047       18.2515714927
  H         6.5427825209        3.6313755631       20.0206612809
  C         5.2027926927        2.2072136873       19.1873312392
  H        11.2351029931        3.0734039359       21.8561629636
  H        11.6452517188        3.1845574014       20.1317046528
  C        12.7735813675        1.8001972870       21.0757072850
  C        10.2330707568        7.7694708014       17.0986987140
  C        10.4433447838        5.5844264838       15.8605492458
  H         0.3441208125        5.4495856364       30.5498406497
  H         0.7507422391        4.0898052132       29.6666732322
  C         2.2557282254        4.5391416127       31.1421085604
  H         5.4394654145       -1.3892784500       32.6235759924
  C         4.5571367156       -0.0246395649       33.8625969721
  H         4.4777279245        3.0126683212       19.1178665304
  H         4.9289877940        1.7101302273       20.1512435401
  C         5.0116518700        1.3483966516       17.8864320610
  H        12.6036525353        1.0402815165       21.8305742670
  H        13.0295360360        1.2446568489       20.2299192879
  C        13.8294856897        2.8120965733       21.4634863698
  N         9.8899765299        8.6268779603       18.1274865286
  C        10.5364962884        8.4370956635       15.9683453790
  C        10.6156285994        6.3677334677       14.7226089437
  H        10.4288970517        4.5202039542       15.8020671963
  H         2.6860786690        5.4379374876       31.5746399799
  H         1.8483017781        3.8625501398       31.9317305890
  H         3.0349107361        4.0506741671       30.6217448882
  S         4.0920266066        1.5423860188       34.2933805178
  C         4.5558008432       -1.0450732457       34.9419658591
  H         5.8862814899        1.7172674201       17.2073254472
  H         5.2227075036        0.2418228218       18.0305866177
  C         3.7006966361        1.6352191037       17.1859473443
  H        13.3589922362        3.6060889245       22.0912111926
  H        14.2378673615        3.2700622068       20.5810447214
  C        14.9052025009        2.0289312519       22.1873605171
  S         9.7771761612       10.1218472121       17.5722130220
  N        10.3879190356        9.8355917457       16.0463713225
  C        10.8444509514        7.8069319048       14.7588991768
  H        10.5810575589        5.8328630783       13.7550910309
  C         3.8952990691        0.8220552720       35.9409870606
  N         4.1046916724       -0.5134345584       36.0562534183
  O         4.7705693195       -2.2930808024       34.7804422303
  H         3.8228807455        1.7013367220       16.1078573426
  H         3.3812903824        2.6230247337       17.4499690334
  C         2.5800735042        0.6048476411       17.5889700279
  H        14.4861615661        1.1632496639       22.7025567673
  H        15.6495961805        1.6495961624       21.4925184557
  C        15.6491098771        2.8427808684       23.2195372334
  C        11.1927213993        8.5535936660       13.6096767984
  S         3.5848919659        1.7924511315       37.3535585340
  C         4.0445504084       -1.1576984552       37.3163048191
  H         2.5428623742        0.3282494376       18.6226301425
  H         1.6263643429        1.1507196390       17.4257962957
  C         2.4722033916       -0.7837484713       16.7913180367
  H        14.9513492390        3.3654831677       23.8680903162
  H        16.1660341847        3.6654146467       22.7286525136
  C        16.6716887822        1.9511830375       24.0007636467
  H        11.3192087137        9.6048752730       13.7409858737
  C        11.5777389786        8.1310070692       12.3780197879
  H         3.2545522202       -0.6984373214       37.9854516358
  H         3.6802438743       -2.2132676564       37.1629972193
  C         5.4993047285       -1.1749350039       37.8536946831
  H         2.5284863904       -0.6683289408       15.7194203927
  H         1.4585776655       -1.0824777674       16.8610456583
  C         3.4212131007       -1.7829250698       17.3640476284
  H        16.7366824587        2.3951683371       25.0184548832
  H        16.1698399438        0.9613019655       24.1616601488
  C        17.9700508591        1.7241384949       23.2738233425
  S        12.0957920346        6.5438139419       11.8365072773
  C        11.4715248213        9.1558457477       11.2906379271
  H         6.1519170693       -1.9262092752       37.4976283927
  H         6.0122424230       -0.3045767384       37.4841314063
  H         5.6232919030       -1.1477955570       38.9554246140
  H         4.4140625401       -1.4552317661       17.2197288948
  H         3.3319755556       -2.7243452817       16.8259302857
  H         3.1917571849       -1.8339018557       18.4638466618
  H        18.9142836459        1.5136048199       23.8279271975
  H        18.1252464055        2.6084631000       22.7896316370
  H        17.8810824479        0.9989352312       22.4809404702
  C        11.9848416580        7.1791966355       10.2479011604
  N        11.7642396995        8.5169074892       10.1834387888
  O        11.1636729010       10.3186555779       11.4619778485
  S        12.8582098283        6.3801078404        8.8560632566
  C        11.8908212269        9.2597292354        8.9096317395
  H        12.1470674689       10.2597070051        9.0918350454
  H        12.8562363110        8.9812862043        8.3058665113
  C        10.6097745936        9.3720514818        8.1956101608
  H        10.6625460692       10.1290622774        7.5230799284
  H        10.3159870413        8.4603998189        7.7057860192
  H         9.8611121438        9.7606163603        8.8658020116
  H        -3.8582059794       14.2441503325       16.2765450088
  C        -3.2932541355       13.3535140419       16.5187533658
  H        -4.0339637807       12.6102093968       16.8121237360
  C        -2.2486519477       13.6164723292       17.6371926610
  C        -2.6512551532       13.0573078830       15.1420248668
  C        -2.8746562897       13.5268230796       18.9676878740
  H        -1.4870679730       12.8821880902       17.7153895082
  H        -1.8669910919       14.6219174455       17.3933952190
  H        -3.2295400491       12.3533448008       14.5484779629
  H        -2.5345121912       13.9347253682       14.5144200944
  H        -1.6281113882       12.6969345212       15.2318327786
  C        -1.8881641832       13.3889478389       20.0712158938
  H        -3.5808492452       12.6723635008       18.9551408869
  H        -3.4280881049       14.4512062289       19.1925236953
  C        -2.5113842811       13.1467319729       21.4392717918
  H        -1.1196833478       12.6365739895       19.8440451801
  H        -1.3281439022       14.3453544429       20.1088434868
  C        -1.5417590875       12.6050816177       22.4965211213
  H        -3.2715792686       12.3635596865       21.1691638986
  H        -3.0085705001       13.9809593026       21.8278885793
  C        -0.3054880191       13.4605319059       22.7590926167
  H        -1.9358436101       12.4281991430       23.4978781876
  H        -1.1908774841       11.6286437651       22.1649488257
  C         0.8946998864       12.7105936547       23.4232700175
  H         0.1199158364       13.8490765989       21.8665491114
  H        -0.4450351418       14.3268307519       23.3794583680
  C         1.1982127082       11.4332930405       22.6981539947
  C         0.4894988367       11.9607499640       24.6620266730
  C         2.1664291162       13.6542274318       23.6301386553
  C         1.0478918394       10.3238621158       23.4884563800
  C         1.6482643837       11.0536619567       21.4188044996
  C         0.5738261083       10.6414972954       24.7272113446
  C         0.0120967471       12.6005368702       25.8146579602
  H         2.3155101364       14.2652484635       22.7603631019
  H         1.8964245307       14.4120826075       24.3930538331
  C         3.4670993019       12.9103136278       23.9631651004
  S         1.5499869519        8.8637508710       22.7331914622
  C         1.8900518531        9.7041877511       21.3067129423
  H         1.7466560278       11.8502547167       20.6697042542
  C         0.3785130796        9.9228844712       25.9067602180
  H        -0.1757892613       13.6871981643       25.7371032590
  C        -0.1549355173       11.9190808063       27.0021436797
  H         3.6881575801       12.1522041533       23.2429412531
  H         3.3803171943       12.5115594708       25.0131853328
  C         4.5942995559       13.9513249412       23.9808781737
  C         2.3762099235        9.0521141171       20.0739864087
  C         0.0907699143       10.5908887392       27.1474587360
  H         0.6447222819        8.8518912608       25.9745580099
  C        -0.4822346408       12.2510125877       28.3091048180
  H         5.3310484155       13.6645753323       24.7836744190
  H         4.1518841336       14.9299419393       24.2461071258
  C         5.2295617012       14.0596383624       22.6122813122
  C         2.6478770353        7.6906224501       19.8799659082
  C         2.7181343279        9.9594250802       18.9649472183
  C        -0.2376736663        9.8880536497       28.3916392244
  C        -0.5180542483       11.1981148753       29.1666894421
  S        -0.8244536037       13.6494269613       29.1495880051
  H         5.7108730142       15.0635662612       22.5740295055
  H         4.3732951229       13.9915475324       21.9440192131
  C         6.3302168704       13.0263108128       22.3308947883
  N         2.4526891293        6.6870861395       20.8764710583
  C         2.9437084986        7.2043674648       18.6298454750
  C         3.1336294579        9.4603773019       17.7341824007
  H         2.4714565686       11.0196165031       18.9549295240
  C         0.9287137161        9.0363236609       29.0230598308
  C        -1.4732673256        9.0903144267       28.2135560638
  C        -0.8099652223       11.5507828916       30.5140167537
  C        -1.1275631144       12.8734201935       30.6312336315
  H         6.9291261905       12.8201971017       23.2101329556
  H         5.7914967086       12.1172248177       22.1867962143
  C         7.2408126347       13.4253552627       21.2192932514
  S         2.7227139711        5.2493600295       20.1923828970
  N         2.9241001686        5.7677392657       18.6357053170
  C         3.2141927094        8.0489726250       17.4906415400
  H         3.1760031785       10.0995992621       16.9037882908
  H         1.3711230537        8.3982254552       28.2646699103
  H         0.4899636493        8.5032747984       29.8732009348
  C         2.0529302398        9.9528052544       29.5298251894
  H        -1.3316548417        8.3311805916       27.4761291995
  H        -1.6437857510        8.6017845041       29.2069149957
  C        -2.7115976084        9.9469386085       27.9294965379
  H        -0.8011500230       10.8211648662       31.2513660853
  C        -1.6152854378       13.5581060789       31.8557989544
  H         8.0175106691       12.6974574952       21.0412871000
  H         7.7856699356       14.4016939202       21.5238859889
  C         6.3655080479       13.8176049981       19.9686118479
  C         3.4158228232        7.4599642262       16.1990332403
  H         2.5610742199       10.4027516551       28.6862316451
  H         1.7114090787       10.6846876504       30.2555387778
  C         3.1442698340        9.1552969173       30.1322189544
  H        -2.5640926648       10.6309971248       27.1384877334
  H        -2.9761257359       10.5989354135       28.7087547823
  C        -3.9315863226        9.1530490533       27.4777773319
  C        -1.7535527545       14.9825637516       31.9607268936
  C        -1.9097197286       12.7851468040       33.0285000891
  H         5.6210783338       13.1062848685       19.7428785045
  H         5.8939977758       14.7845840297       20.0949935598
  C         7.1023977759       13.8463992971       18.6561128265
  H         3.1971566288        6.4498364388       16.1622207545
  C         3.6907645955        7.9544349592       14.9413729231
  H         3.3992248441        8.4327193347       29.3352762153
  H         2.6767300063        8.5179050821       30.8814845459
  C         4.2611583295        9.9674260152       30.7656320912
  H        -3.5891501898        8.3181896693       26.8248284022
  H        -4.2206097851        8.5017109261       28.2883097737
  C        -5.1011791509       10.0006957955       26.9751006336
  N        -1.5221309317       15.9061341323       30.9952348917
  C        -2.0750237668       15.6552348392       33.1135375428
  C        -2.2151209781       13.4304377880       34.2291460565
  H        -1.9012937506       11.7011401439       33.0234261970
  H         7.8984112229       13.1539957097       18.6648663977
  H         6.4303435056       13.6286533776       17.8436632704
  H         7.6750797991       14.7359526509       18.5851939191
  S         4.0366137129        9.5250325320       14.5395894067
  C         3.8055991037        6.9437643808       13.8169370020
  H         4.7856043802       10.4763834494       30.0457651406
  H         3.9720015221       10.8177717420       31.3396505775
  C         5.1859980651        9.0280520534       31.5549360164
  H        -4.8261346059       10.7843518103       26.3075740258
  H        -5.4287926827       10.6085148698       27.8070979452
  C        -6.2962667893        9.1772919905       26.5791270519
  S        -1.6875614511       17.4300197186       31.5516175898
  N        -2.1059246003       17.0186886070       33.0554548576
  C        -2.3214686956       14.9516782284       34.3013903869
  H        -2.4320374371       12.8278820920       35.0566478081
  C         4.1252177413        8.9627711079       12.8454764295
  N         3.9760159387        7.5877422304       12.6605435100
  O         3.5895066928        5.7346150474       13.8938282556
  H         4.6725133498        8.5037814632       32.3352333079
  H         5.9888991342        9.6682715150       32.0305853083
  C         6.0007463649        8.1730227001       30.6246008421
  H        -6.0766800081        8.3499327329       25.9182661209
  H        -6.7312636249        8.7157579865       27.4322063799
  C        -7.3410676291       10.0411742049       25.7363260196
  C        -2.7251530915       15.7394909317       35.4338482340
  S         4.7296830167        9.7235101589       11.4159293210
  C         4.0438403610        6.7627800981       11.5078953739
  H         5.3984736421        7.8652376766       29.8334805027
  H         6.6199376985        8.8790644024       30.0264381974
  C         6.8769605167        7.0776767249       31.2618026493
  H        -6.9905485751        9.9769151281       24.7252744122
  H        -7.2186652630       11.1533891371       25.9346021670
  C        -8.7890816534        9.5317100404       25.7085323568
  H        -2.6855177543       16.7981390919       35.3256249631
  C        -3.2400613740       15.3872035334       36.6409252598
  H         4.7005439724        7.1384141195       10.7569777564
  H         4.5019849854        5.7680094754       11.7134764907
  C         2.6144602838        6.5995036014       10.9165976993
  H         7.2046967311        7.2644884087       32.2983496510
  H         7.7105246430        6.8566409461       30.6592692428
  C         6.1423007381        5.7654259186       31.2752155375
  H        -9.2532841308        9.7457424842       24.7474700635
  H        -8.8020746764        8.4713956514       25.7381867638
  C        -9.5444398958       10.3115074079       26.8562558167
  S        -3.7785675100       13.8379324872       37.0842648783
  C        -3.4278194977       16.4782669670       37.5832884033
  H         2.5761050067        6.1223470054        9.9955017775
  H         2.1736436714        5.8462375865       11.5414819739
  H         2.0614947985        7.4794117298       10.8741031031
  H         6.5564382321        5.1773202720       30.3945039461
  H         5.0677907276        5.9306818563       31.1968747290
  H         6.3133393313        5.2245214153       32.1447688701
  H       -10.6324226249       10.2035171079       26.6827017202
  H        -9.2020415655       11.3662173158       27.0565196433
  H        -9.2976500038        9.8172924296       27.8498293568
  C        -4.2328429848       14.6271112421       38.6025007532
  N        -4.0569330184       15.9857046746       38.6610699140
  O        -3.0311188513       17.6096404660       37.4033020965
  S        -4.6415470166       13.8448519998       40.0582241343
  C        -4.1162487520       16.7402620382       39.8365686324
  H        -4.2882087388       17.7321129559       39.4974226506
  H        -4.9177888127       16.5912203362       40.4568247872
  C        -2.7907301998       16.6182399365       40.5471869954
  H        -1.9802730456       16.5999685188       39.7857864351
  H        -2.7005466068       17.5415056359       41.1580803285
  H        -2.7620121979       15.6799693073       41.1221824035
