352
 i =     1100, time =     1100.000, E =        50.6804425625
  H        11.0720610856        7.6357195459       32.5232011600
  C        11.2237567892        6.5477385883       32.6303550674
  H        12.1886552635        6.3245556173       32.4478897205
  C        10.4716035075        6.0303645793       31.3775084366
  C        10.7833656804        5.9979735460       33.9057391735
  C        11.1356287012        6.3244391418       30.0574058121
  H        10.3806748794        4.9765593850       31.5738502511
  H         9.3792945965        6.3495430861       31.3785591199
  H        11.6096174237        5.4403791467       34.4834775938
  H        10.0905308598        6.5581498639       34.5929865564
  H        10.1774525099        5.0480323323       33.8047911836
  C        10.0168565711        6.0222350778       28.9655309252
  H        11.9878535721        5.6716113289       29.9798279666
  H        11.4491963813        7.3594236063       30.0314905484
  C        10.5834369214        5.8478034367       27.6025579451
  H         9.4933670176        5.0835252831       29.3748719722
  H         9.3063370035        6.8332298409       29.2211011929
  C         9.7338785369        5.2415191993       26.5033930525
  H        11.4777701786        5.2228060337       27.6453455703
  H        10.9177052520        6.8266286239       27.4022589290
  C         8.4878920194        5.9837967236       26.1680580794
  H        10.2286377302        5.0300180415       25.5483764310
  H         9.4725895545        4.2875310873       26.8688876451
  C         7.3044073324        5.3156094094       25.5118259747
  H         8.1132395805        6.4043227890       27.1118902621
  H         8.7722842484        6.8185383430       25.5827008861
  C         7.0009748253        3.9513702675       26.0748088703
  C         7.6181444211        4.6585170149       24.1983787708
  C         6.0577696017        6.2688039348       25.4577705801
  C         7.2224700266        2.8411438542       25.2493674555
  C         6.4448321217        3.5583187554       27.2927772067
  C         7.7040156787        3.2702654042       24.0412455854
  C         8.1684509986        5.3959758545       23.0745999324
  H         6.2643558091        7.0699549323       24.9596255029
  H         5.6885133815        6.5261515694       26.3992096783
  C         4.8125781985        5.7607771353       24.6862674318
  S         6.6850296368        1.2761613643       25.8780608829
  C         6.1928793905        2.1672240525       27.2875385060
  H         6.3072021634        4.1852973152       28.1079046419
  C         7.9377309182        2.6537951915       22.8123127739
  H         8.2768274177        6.4075109761       23.0712237983
  C         8.5895084533        4.8058958215       21.9217262360
  H         5.2078130090        5.4772027544       23.7083460923
  H         4.4568112167        4.7819551161       24.9864748369
  C         3.5902432984        6.6830518755       24.4996035708
  C         5.7006877800        1.4820489233       28.5536031505
  C         8.5405043851        3.4275867381       21.7505960070
  H         7.8160578171        1.6579019209       22.8159120940
  C         8.9346986195        5.2138867237       20.6834397991
  H         3.0148521671        6.2414998143       23.6901258173
  H         4.0080601489        7.6357480540       24.0481416998
  C         2.7746130622        6.8517329454       25.8181953106
  C         5.7893542086        0.1326698266       28.8118198525
  C         5.2204878410        2.2382594306       29.7016634015
  C         8.9900194832        2.8154094929       20.4805518881
  C         9.1297250299        4.1202307912       19.8103161549
  S         9.1868589910        6.7164368577       19.9295110603
  H         2.0450010171        7.6959247350       25.6092470086
  H         3.4624336093        7.2271713967       26.6464449346
  C         2.0438342554        5.6109417645       26.1793862970
  N         6.1292896633       -0.9147711873       27.9224777980
  C         5.5051770204       -0.4376732818       30.0341210730
  C         4.8738808725        1.6791578223       30.9626774984
  H         4.8817258973        3.3003431842       29.6436493924
  C         7.9357088817        1.9932337731       19.8799562809
  C        10.2692335048        2.0429415651       20.8360737377
  C         9.3586043251        4.5362822303       18.5068014371
  C         9.5033779965        5.8608666205       18.3737275183
  H         1.3559271428        5.1516903525       25.4316037064
  H         2.8192023449        4.8869580936       26.5519121765
  C         1.0063242505        5.6687296991       27.3295631632
  S         6.2125212093       -2.3959037277       28.5282926914
  N         5.7471728391       -1.8887911013       30.0171397351
  C         5.1796602353        0.2968786629       31.1860552573
  H         4.4759902788        2.2763981367       31.8384112592
  H         7.6343938158        1.1276331916       20.6038245166
  H         8.2172450942        1.6682310516       18.8883473644
  C         6.5787870214        2.7067113161       19.6888531360
  H        10.7917828154        1.9679798249       19.9493790099
  H        10.1294476089        0.9942358956       21.1870710117
  C        11.2275071747        2.8539804556       21.7434635813
  H         9.3845814891        3.8101372278       17.7681646293
  C         9.9353684028        6.5845451051       17.0741338844
  H         0.4827081393        4.6845229082       27.5867813132
  H         0.2508885934        6.4987532221       27.4375870668
  C         1.8102994957        5.8027009126       28.6359840090
  C         4.8528849259       -0.4140608462       32.4050745286
  H         6.4858821999        3.3320017181       18.8572679761
  H         6.2029833672        3.1943580621       20.5350840277
  C         5.5228806843        1.7120618258       19.2952500788
  H        10.9914925051        2.9074451377       22.8656921587
  H        11.1877470204        3.8392383605       21.1957644176
  C        12.7019534109        2.3544628870       21.5351945720
  C        10.0911254097        7.9590024843       16.9421144487
  C        10.1735546919        5.7518508237       15.8648656328
  H         2.3700131952        4.9207817784       28.7742883613
  H         2.5881959461        6.5693615664       28.7838345522
  C         0.9085189217        5.9881527291       29.9422640228
  H         5.0573392425       -1.4853789926       32.4113973789
  C         4.5290326794       -0.0041602804       33.6371389756
  H         4.8411467532        1.2049083038       19.9257639316
  H         6.0099693377        1.0585982456       18.7297065905
  C         4.4973811628        2.4239601632       18.3806756163
  H        12.6631871957        1.2819402630       21.3484837917
  H        12.9916793025        2.7028815081       20.5477814422
  C        13.6617547841        2.8792139291       22.5843173914
  N         9.8935451516        8.9257914118       17.9041748248
  C        10.4470392420        8.5803007953       15.7572166713
  C        10.4761257702        6.3854353320       14.7139325530
  H        10.1738620709        4.6167869086       16.0391383426
  H         1.7064177159        5.9663907695       30.8507481874
  H         0.4374810390        7.0294685167       29.8147887587
  H         0.2006893518        5.2359676550       29.8880037035
  S         4.2301570958        1.6338798788       34.1865563976
  C         4.3716638447       -1.0535509017       34.7239999338
  H         4.2512333254        3.4024788698       18.9503884219
  H         4.9803168566        2.4615657090       17.3148437810
  C         3.1777245485        1.6844408398       18.3854041665
  H        13.2614595907        2.8881338917       23.5575580291
  H        13.7434643627        3.9888087035       22.2926237105
  C        15.0282285283        2.2605602266       22.5499369878
  S         9.9155096353       10.4306180591       17.2063212396
  N        10.5121287099        9.9754523240       15.7622124005
  C        10.5535540679        7.8590511844       14.5923302041
  H        10.6168688625        5.6852877854       13.8986991868
  C         4.1694242443        0.8892869401       35.8173060469
  N         4.1275340683       -0.4666524660       35.9287066129
  O         4.2560449344       -2.2879232857       34.5446059176
  H         2.3028487325        2.1800492845       17.7743250388
  H         2.7322725596        1.5825195069       19.3603729723
  C         3.2085683789        0.2473762390       17.8234701081
  H        14.9279910536        1.2232871831       22.8787446247
  H        15.5226743001        2.3879430624       21.5946924606
  C        15.9967462235        2.9353019117       23.5299876809
  C        10.8596165424        8.5192432731       13.3508359679
  S         3.7774082549        1.7471762324       37.3083391945
  C         4.2834106144       -1.2855812475       37.1668394403
  H         2.8957571853        0.3305260768       16.8293799613
  H         4.1584388934       -0.1047124761       17.8038851508
  C         2.3356747341       -0.8339815275       18.4916006064
  H        15.4440341566        3.2977634826       24.4035072022
  H        16.1760547793        3.8995025167       23.0079219714
  C        17.3437930970        2.2120098435       23.8263883157
  H        10.5007044765        9.5794469265       13.3448126238
  C        11.5642648492        8.0825450138       12.2592958204
  H         3.5899358809       -1.0325053465       37.9194753170
  H         3.9867584175       -2.3477966838       36.9819498326
  C         5.7397641451       -1.0497035597       37.7481982331
  H         1.4100546857       -0.4797850655       18.9789960676
  H         3.0333884888       -1.2281704613       19.3089473061
  C         2.0669501752       -1.9731741023       17.4863489075
  H        17.9093774277        2.5072793315       24.5892101339
  H        17.0742038379        1.2673353941       24.1468296758
  C        18.3374663152        2.1696855404       22.7309802991
  S        11.9613225350        6.4258058103       11.8624583907
  C        11.7029441343        9.0904570210       11.1788245467
  H         6.5568968839       -1.3038942989       37.0598593842
  H         5.8131788948        0.0208544554       38.1035486528
  H         5.7617683660       -1.7343462134       38.6351983868
  H         1.4810919615       -2.7872280138       17.9258668801
  H         2.9496031869       -2.4838938867       17.1358264210
  H         1.5171033025       -1.7308047438       16.6346559418
  H        18.0410663656        1.6763253800       21.8809364047
  H        19.2166419863        1.5033932150       23.0145806798
  H        18.7186757651        3.3081563957       22.6686530657
  C        12.3431261603        7.0443653089       10.3125718908
  N        12.2696167579        8.4449664480       10.1258442704
  O        11.5139666892       10.2831969391       11.2947744982
  S        13.0133052706        6.1229552526        8.9628520423
  C        12.4573504663        9.1172711505        8.8541433388
  H        12.8493492168       10.2176938474        9.1323955377
  H        13.3018238875        8.7587144024        8.3485695959
  C        11.0739806938        8.8838594012        8.1018891143
  H        10.4099409689        9.2874184918        8.8841855421
  H        11.1385199748        9.5182137975        7.1011648421
  H        10.9813880038        7.7555451619        7.8440086138
  H        -3.4115507449       14.7296412090       16.0233360909
  C        -3.3773604962       13.6879990176       16.2262388639
  H        -4.2633031281       13.4132844753       16.8237334812
  C        -2.2312056463       13.4695952556       17.2506187043
  C        -2.9959795514       12.9139848081       14.9514287121
  C        -2.6522891472       14.0701470987       18.6247200106
  H        -2.2360520607       12.4467511184       17.4492239740
  H        -1.3532288967       14.1102295527       16.9079592968
  H        -2.1463309741       13.4105246860       14.4369048289
  H        -2.6950494818       11.9555526607       15.0520836369
  H        -3.9109108113       12.7672208336       14.3950734058
  C        -1.7291936519       13.7652461855       19.8182205404
  H        -3.5276743178       13.7050004087       19.1216243854
  H        -2.5038239258       15.1624895271       18.5967115557
  C        -2.3732943215       13.5535578256       21.1459903786
  H        -1.0907521975       12.7765596047       19.6220117856
  H        -0.8859561025       14.4757671409       20.0466835120
  C        -1.4315618120       13.0570293728       22.3238530310
  H        -3.0631979156       12.6255429751       20.9147214144
  H        -3.0558362100       14.4358210092       21.3543186471
  C        -0.1562945391       13.8068071569       22.5764364106
  H        -1.8768850337       12.7896797347       23.2464554895
  H        -1.2064118592       11.9899957654       22.0376081690
  C         0.9323823564       13.1106170644       23.4399750280
  H         0.2324797324       14.0966807354       21.6474914122
  H        -0.3687336449       14.6942272426       23.0387685867
  C         1.4627108343       11.8213583258       22.8167705613
  C         0.5516841164       12.3730437985       24.6839100946
  C         2.0524582039       14.0979677721       23.6831708441
  C         1.1823912003       10.6866251886       23.6361724109
  C         1.9398459733       11.4856431648       21.5111761924
  C         0.6397612877       11.0261612948       24.8227766450
  C         0.0492522961       13.0421397187       25.7379457823
  H         2.1304306383       14.7100902526       22.8024137060
  H         2.0300443013       14.8698359949       24.4728974460
  C         3.3541683723       13.3420433807       23.9456139415
  S         1.6406441254        9.2327561601       22.8816559109
  C         2.0670344392       10.1001337259       21.4698996865
  H         1.8799383452       12.1608104577       20.6483417524
  C         0.2554938250       10.3643170659       25.9574827688
  H        -0.1286868678       14.0013047305       25.6752342697
  C        -0.2882549322       12.4314051089       26.9180912988
  H         3.8348044646       12.8110600678       23.1478762004
  H         3.1453967107       12.5716910296       24.6266209333
  C         4.4279803745       14.2476535400       24.3595872453
  C         2.4848405994        9.3542684841       20.0910372959
  C        -0.1347512084       11.1077397176       27.0947623650
  H         0.2462988133        9.3080470066       25.8902528469
  C        -0.8102139008       12.8011637486       28.1498297128
  H         5.0490810986       13.5335265750       25.0450419280
  H         4.2565524156       15.2231049134       24.9899892209
  C         5.4104547363       14.5719229326       23.2754786291
  C         2.4372554618        7.9494274780       19.9444140298
  C         2.7697039116       10.1418481901       18.9634364192
  C        -0.5005462801       10.3639425506       28.3037405531
  C        -0.8795745689       11.6974264959       28.9953076122
  S        -1.1063033331       14.2683276570       28.9534014500
  H         5.8650828484       15.4535701067       23.7427269895
  H         4.7992023946       14.8299227192       22.4366890947
  C         6.4521252282       13.5214131698       23.0209764188
  N         1.9789011087        6.9409689593       20.8296174741
  C         2.6454487605        7.3348231048       18.6977536877
  C         3.1334251139        9.4905985512       17.8429697155
  H         2.8736596964       11.2143208153       19.0036395365
  C         0.6919594334        9.6296448209       28.9275444632
  C        -1.7210972369        9.4765877429       27.9909842589
  C        -1.2056433232       11.9955113883       30.3482096086
  C        -1.4004955401       13.3799686471       30.5022014501
  H         7.0250832078       13.3964354248       23.9641134142
  H         5.8526932708       12.6646384150       22.9723687114
  C         7.2014321322       13.5466188065       21.7031018540
  S         2.1684776744        5.4517089526       20.2341004171
  N         2.5900241029        5.9089999443       18.7524635261
  C         3.0585965071        8.0573649034       17.6283014110
  H         3.3244151497       10.1941516419       16.9777228967
  H         1.0315082549        8.9553335869       28.1114463645
  H         0.4567057571        8.9994989848       29.7884768581
  C         2.0034435748       10.4295488189       29.2282737406
  H        -1.5138214865        8.6764033340       27.2740267505
  H        -2.0197008335        8.9265417870       28.9086304414
  C        -2.9765678812       10.0875256189       27.5510751837
  H        -1.2561946918       11.1426037992       31.0633656147
  C        -1.6985244588       14.0660363096       31.8027958839
  H         7.7530437604       12.6551920977       21.7275687740
  H         7.8028554911       14.4616696327       21.9145704515
  C         6.3709989951       13.6030634791       20.3765043089
  C         3.1982324838        7.3655447434       16.3223620218
  H         2.2983000271       11.1784822908       28.4638377235
  H         1.8342560950       10.9547078409       30.1911210141
  C         3.2299565192        9.4579491399       29.4634109215
  H        -2.7422579008       10.7745957788       26.8300228982
  H        -3.3410636204       10.4445114445       28.4480767296
  C        -4.0078117484        9.2209893618       26.7473161214
  C        -1.8323985376       15.4849415283       31.9519507461
  C        -1.7759710852       13.2573569077       33.0556845093
  H         5.7445817178       12.7408124275       20.3059101295
  H         5.8375648221       14.6052660960       20.2275997881
  C         7.3631235775       13.6092193037       19.1506485782
  H         3.0539514942        6.2812846301       16.2819383162
  C         3.4697769459        7.9202863633       15.1049590985
  H         3.4962555891        8.8324205587       28.6127047195
  H         2.9371744310        8.7146530404       30.1079230648
  C         4.3275274652       10.2275061362       30.2152122884
  H        -3.4391862608        8.6792202282       25.9940030931
  H        -4.6031633752        8.5514876687       27.4315476220
  C        -5.0437487934       10.1506409991       26.1296369619
  N        -1.6442482583       16.4331739201       30.9564277784
  C        -2.2305239679       16.0015963798       33.1625041915
  C        -2.0561698986       13.8076124186       34.2454454149
  H        -1.8018920696       12.1402095101       33.0164426095
  H         6.6415820500       13.8472339786       18.3540267955
  H         8.1117901098       14.3723341652       19.0920568814
  H         7.7107524706       12.6223046104       18.9894754445
  S         3.8254503998        9.5131224356       14.5255429677
  C         3.6945319502        6.8328524394       14.0265467162
  H         4.4375601234       11.1761031364       29.6882567242
  H         4.1200847123       10.4350352965       31.2266190068
  C         5.7040725230        9.4544980292       30.0282156049
  H        -4.6631271297       10.6497935490       25.1883462270
  H        -5.1950396343       10.9692123946       26.9309363734
  C        -6.3198811091        9.4179512257       25.7140909274
  S        -1.8263323492       17.8792148497       31.6544834559
  N        -2.2486109808       17.4172626152       33.1459529494
  C        -2.3875476750       15.2550756442       34.3675526952
  H        -1.9135547413       13.2970342506       35.1586794220
  C         4.0256277750        8.7683928157       12.9533505885
  N         4.1238946103        7.3928203175       12.8357373196
  O         3.5296944280        5.5844166248       14.1624262754
  H         6.5117976794       10.2172036179       30.0291490411
  H         5.7291044351        8.8489110001       29.0876247112
  C         5.8145686242        8.3014974132       31.0445382437
  H        -6.0972162516        9.0328474968       24.8094268324
  H        -6.4399274384        8.6473697484       26.5075107276
  C        -7.4639066569       10.3598264619       25.7137326662
  C        -2.5755966505       16.0404907386       35.4870228985
  S         4.5527837777        9.6316015676       11.4680287324
  C         4.0244210673        6.7026224141       11.5797415844
  H         6.3615278566        8.5023557949       31.8248481299
  H         4.7912047341        8.1074705222       31.5382238718
  C         6.2304293723        7.0912805779       30.2578258878
  H        -7.1917103230       11.4179156626       25.3280115270
  H        -7.8604395704       10.4709098846       26.8126350805
  C        -8.7687126212        9.9248589221       24.9571504332
  H        -2.5792582516       17.1208206723       35.4230903788
  C        -3.1189060323       15.5862355072       36.6923582742
  H         4.7169701374        7.0662303447       10.7766321731
  H         4.2501813451        5.5990992406       11.6178631766
  C         2.6150965471        6.5800488770       10.9799106367
  H         7.3005570991        7.2892857888       30.0233592881
  H         5.5624333103        6.9058902552       29.4374576428
  C         6.2566854831        5.8594855491       31.0704877470
  H        -8.9902120018       10.5356637438       24.1837622790
  H        -8.4915549409        8.9428176212       24.5875051993
  C        -9.8776938342        9.7647086807       25.8977303355
  S        -3.4246066019       13.9040223000       37.2226957941
  C        -3.2763536205       16.6065455656       37.9084658351
  H         2.7285358376        7.0233742629        9.9215707478
  H         2.4584603173        5.4807391890       11.0305478864
  H         1.9894045950        7.1788844125       11.7260263908
  H         6.8208198978        5.1259499123       30.4991682428
  H         5.2369787385        5.5512012781       31.1687040830
  H         6.7284665630        5.8583452122       32.0181160209
  H       -10.3703957398       10.7607900500       26.1578647176
  H        -9.6366123474        9.1250782586       26.8027258795
  H       -10.6042938353        9.2632075604       25.2521027965
  C        -3.8026906238       14.6413723294       38.8299946320
  N        -3.8130155158       16.0039925107       38.8985483300
  O        -3.0936018159       17.8317436396       37.8171550973
  S        -4.5277433118       13.7261165482       40.1614254382
  C        -3.9903333393       16.7162396595       40.1878636330
  H        -4.2944846456       17.7680422544       40.0329678143
  H        -4.5869742998       16.2966241978       40.9265583940
  C        -2.5811247898       16.8343757609       40.9454218277
  H        -1.8324163031       16.9152560680       40.1399949936
  H        -2.7112027671       17.6926574895       41.6019572855
  H        -2.2801397868       15.9169693123       41.4758650915
