352
 i =    15100, time =    15100.000, E =        24.3810064096
  H        11.0721340647        6.9220361503       32.5560621990
  C        11.1083561882        5.8674970170       32.3330812847
  H        12.1204599560        5.5583518050       32.0735170596
  C        10.1284612174        5.3095435671       31.2890022403
  C        10.7117398872        5.2001327907       33.6773762134
  C        10.9323838118        5.3685891160       30.0150401659
  H         9.9003066084        4.2594664779       31.5895283859
  H         9.2729274712        6.0197659628       31.2573794560
  H        11.5076786886        5.5632361840       34.3804253630
  H         9.6909692399        5.3402834948       34.0119072476
  H        10.7877112145        4.0971809443       33.6424789075
  C         9.9503282889        5.3625200820       28.7996396875
  H        11.6460659832        4.5489422659       29.9467935808
  H        11.4606639821        6.3171118632       30.0507823737
  C        10.6760427394        5.0283937780       27.5102827931
  H         9.3207917587        4.5195483356       29.0220864207
  H         9.3236631214        6.2159230816       28.6584826567
  C         9.7827189397        4.4834733655       26.3607688300
  H        11.4426937736        4.2742568535       27.7415701951
  H        11.2547815940        5.8723149303       27.1471801161
  C         8.5423278301        5.3294232854       26.0215599637
  H        10.4263582587        4.1733694101       25.5135487026
  H         9.3017396085        3.5355869598       26.6388580722
  C         7.3767151925        4.7107474549       25.2487184493
  H         8.0966395996        5.7718719119       26.9114439806
  H         8.9652640334        6.0944027876       25.3510276892
  C         6.9656663101        3.2946896417       25.7843697743
  C         7.7831332742        4.0058448636       23.9896287489
  C         6.2907836023        5.8180372445       24.9908216763
  C         7.1145632459        2.1673992770       24.9695042229
  C         6.5869945066        2.9446895472       27.0814560347
  C         7.6656090108        2.6442103758       23.7740250773
  C         8.4054297810        4.6756226853       22.9145142742
  H         6.7143963526        6.6707111543       24.3558719132
  H         6.2154049206        6.2804543419       26.0003364463
  C         5.0028844290        5.1736743758       24.4594024320
  S         6.7545013184        0.7107224904       25.8594482595
  C         6.4704877671        1.5800129876       27.2805929538
  H         6.5217788813        3.7552072938       27.7616593046
  C         8.0823892662        2.0578175777       22.6211404234
  H         8.6522750110        5.7801371815       23.0331725280
  C         8.7865117978        4.1105075680       21.7188224995
  H         5.3070628068        4.6678231118       23.4866141035
  H         4.7691200463        4.3143454864       25.1571329312
  C         3.7665643287        6.0551400155       24.3619317953
  C         6.0385625324        0.9649522170       28.5630210090
  C         8.6363980865        2.7612179221       21.5572702846
  H         8.0431783730        0.9526868522       22.5042474164
  C         9.2581962913        4.4994144638       20.4923568146
  H         3.0372318391        5.6157410339       23.8050415543
  H         4.0879936564        6.9960690419       23.9106794152
  C         3.1180801772        6.2860238539       25.7468854642
  C         5.9515589784       -0.4165698641       28.8942929936
  C         5.6790843064        1.8959312732       29.6606467893
  C         9.0719449537        2.1285004539       20.2624273017
  C         9.4003920832        3.4900792736       19.6179421694
  S         9.7367230367        6.0322860417       19.7674495106
  H         2.3289104850        6.9809547658       25.3535776304
  H         3.8084609048        6.6988533020       26.4765605047
  C         2.5012056824        4.9454619183       26.4084243546
  N         6.2834734769       -1.4743885481       27.9737183455
  C         5.7038089522       -0.8894051338       30.1447946773
  C         5.2488221369        1.3349117888       30.9142764078
  H         5.5796399955        2.9074223284       29.6125404969
  C         7.9889469426        1.4090750996       19.5353018178
  C        10.2938985874        1.2394944333       20.5298233627
  C         9.8139758900        3.9081440018       18.3339504685
  C         9.9812393657        5.2755028066       18.1852238538
  H         1.9444957109        4.3699246068       25.6560836025
  H         3.3124994993        4.2479147055       26.7062249639
  C         1.7826898769        5.2019117978       27.6977926661
  S         6.1827741238       -2.8857760598       28.7952496800
  N         5.6184023873       -2.2958777848       30.1631328396
  C         5.3355514585       -0.0988481462       31.2262155656
  H         4.7490616084        2.0325376611       31.5676151925
  H         7.6535495661        0.5354235954       20.1500701437
  H         8.5146666074        1.0294419813       18.6757343723
  C         6.7839306159        2.3323202714       19.0820947754
  H        10.5899939140        0.9157029333       19.5534146008
  H        10.0300631875        0.3013759066       21.0255670159
  C        11.5732163500        2.0394727772       21.0164622609
  H         9.9253609153        3.1637842437       17.5755170296
  C        10.2788099622        5.9596979786       16.8610083290
  H         0.9656413519        4.4636945321       27.6673635935
  H         1.3119967692        6.1638457690       27.7570911309
  C         2.7186631701        5.0593037493       28.9936376928
  C         4.8973346476       -0.7534862445       32.4518133214
  H         7.0906166481        3.1800475743       18.5369673696
  H         6.3529077329        2.8021879065       19.9532291870
  C         5.6249577141        1.7694713655       18.3330216997
  H        11.4161433641        2.6386911423       21.9088989225
  H        11.9049134127        2.7989008153       20.3378830839
  C        12.7718480123        1.0971579582       21.2281410988
  C        10.3092029128        7.3725530060       16.7868212837
  C        10.2851367614        5.2218948926       15.5712987197
  H         3.1137669741        4.0796239464       29.1567430038
  H         3.5865756936        5.6791128085       28.9145574546
  C         1.8868243345        5.5356254041       30.2532288531
  H         5.0045361402       -1.8387168600       32.4771646728
  C         4.5546864430       -0.3271654123       33.7165566119
  H         5.2124283656        0.9163719693       18.9683425243
  H         6.0837203585        1.2063049995       17.4834521964
  C         4.4977943796        2.7008013294       17.9598130079
  H        12.7025514348        0.6335321227       22.2081345898
  H        12.7571510833        0.2974711366       20.4931567443
  C        14.1079312390        1.8392353433       21.0604435758
  N        10.1967881448        8.2603995497       17.9075607771
  C        10.4687401043        8.0707405139       15.6261295175
  C        10.3643898965        5.9174982261       14.3549576267
  H        10.1033534314        4.1489178357       15.6250199384
  H         1.1017478756        6.2258787837       29.9201292218
  H         1.4224498334        4.6297881752       30.6312709699
  H         2.5432686779        6.0642187263       30.9779494420
  S         4.3414744774        1.2325114444       34.2554270973
  C         4.3748657487       -1.3476527910       34.8111905032
  H         4.5768343803        3.6188164834       18.4871422334
  H         4.4781167813        2.9281284659       16.8472514523
  C         3.1644975194        2.0656024052       18.1921924234
  H        14.0043808415        2.7110794776       20.4164624902
  H        14.8602013968        1.2338802576       20.5673279031
  C        14.7310696431        2.2936388428       22.4106388358
  S        10.1778377206        9.7933242000       17.3762453194
  N        10.6021363104        9.4636378413       15.8290513522
  C        10.5411004770        7.4112910338       14.3499429234
  H        10.3907831677        5.3294883231       13.4720789180
  C         4.1528874512        0.6030599116       35.9276059787
  N         4.0678045379       -0.7745396150       35.9606217149
  O         4.4552018092       -2.5561164382       34.6995324058
  H         2.3360808328        2.7697289940       18.1085101924
  H         3.1681981373        1.7499080801       19.2164118536
  C         2.9323538426        0.8332053859       17.3600657874
  H        15.6307327999        2.8994421014       22.2617850016
  H        14.0718487923        2.8950950910       23.0285783052
  C        15.1913787975        1.0541962991       23.1408054841
  C        10.9169909628        8.2025217025       13.2081350931
  S         3.6861617184        1.5948372713       37.3351106186
  C         4.0051500061       -1.4907898117       37.2034034410
  H         2.0036663728        0.9851628500       16.7170723694
  H         3.6998128684        0.6211545794       16.6438678174
  C         2.6781141671       -0.4469051997       18.2174829640
  H        15.4350428038        0.2977380184       22.3955606546
  H        14.3125071727        0.6467194195       23.7254843497
  C        16.4026063778        1.4067614071       24.0399373057
  H        10.5776409790        9.2427702437       13.3822411618
  C        11.5745237921        7.9236641680       12.0422243208
  H         3.3172446320       -0.9877260768       37.8972702494
  H         3.4602576656       -2.4090586687       36.9953037707
  C         5.4073949011       -1.6375776371       37.7895947005
  H         1.8143784790       -0.2978087061       18.9329808890
  H         3.5351077624       -0.6415671788       18.7686174629
  C         2.2395068179       -1.6003584139       17.3819532550
  H        16.2235188847        2.2731901423       24.6702576552
  H        16.4148315482        0.5142736162       24.6949244200
  C        17.8056829286        1.4380630857       23.3921415534
  S        12.1703176420        6.3198620042       11.6130498714
  C        11.7312940784        8.9472667281       11.0629382362
  H         5.7544590983       -0.7398297368       38.2866240599
  H         5.5343658335       -2.4852924447       38.5166139117
  H         6.1141372630       -2.0070022026       37.0060698146
  H         2.9698063503       -1.8563963483       16.6234226857
  H         1.2505455588       -1.5034303867       16.9283054533
  H         2.1877506308       -2.4911109311       18.0688464576
  H        18.6651229427        1.1799837979       24.0168567624
  H        17.9300556271        2.4421646687       22.8882862603
  H        17.7548320551        0.7629341838       22.5719483210
  C        12.5245040373        7.1385855811       10.0316300987
  N        12.3515904738        8.4802245955        9.9784794124
  O        11.3466294783       10.0878760878       11.1684164775
  S        13.1108871329        6.3796828447        8.5027077045
  C        12.5517900454        9.3486437948        8.8098927362
  H        12.7138615062       10.3823368873        9.1737598529
  H        13.3624496348        9.0495232329        8.2149498859
  C        11.2455748564        9.4901281433        7.9316363816
  H        10.3930603332        9.1024035904        8.5034023586
  H        11.0467381381       10.4674197087        7.5491225796
  H        11.2213158799        8.8336462125        7.0971523462
  H        -3.4622107752       15.0147182191       16.1726306063
  C        -3.0928104829       14.0056629096       16.3418107496
  H        -3.8827509360       13.5319384607       16.8625410733
  C        -1.9747905673       14.0906770349       17.4026800851
  C        -2.6173890043       13.3020241654       15.0960498502
  C        -2.5449635887       13.7967213477       18.8482975180
  H        -1.2756535646       13.3286444809       17.1977888143
  H        -1.3266479212       14.9826635494       17.2539529739
  H        -3.5889872860       13.0340870989       14.6798281494
  H        -2.0899363424       14.0372338392       14.5054244143
  H        -1.9407611338       12.4256280091       15.1828749229
  C        -1.3948938200       13.6801015207       19.9233961221
  H        -2.9342912647       12.8121925383       18.8585635928
  H        -3.2763966716       14.5964987936       19.0821663398
  C        -2.0887844946       13.4858995137       21.3158418967
  H        -0.6320839035       12.9288208443       19.8788144972
  H        -0.8931289872       14.6352911944       19.7332088173
  C        -1.1880361243       12.6434726147       22.2067485520
  H        -3.0491023085       12.9687315909       21.3120723074
  H        -2.3415263810       14.4622243611       21.7095559975
  C         0.0416299068       13.4966468462       22.5917621646
  H        -1.7018091452       12.3649390732       23.1554137975
  H        -0.9551762101       11.6549322219       21.7290910012
  C         1.2864289856       12.8201855782       23.3170465216
  H         0.4735483302       13.7964706680       21.7099933335
  H        -0.1037627545       14.4571970503       23.0619869695
  C         1.5591073380       11.4222302676       22.6317529339
  C         0.9324179779       12.1000201039       24.5465710490
  C         2.4930442388       13.7149248628       23.2934084972
  C         1.2970980573       10.3334938733       23.4055377331
  C         2.0714629540       10.9966355247       21.3798285082
  C         0.9467090343       10.7249923436       24.6708072147
  C         0.4459743129       12.7295527665       25.6658922589
  H         2.7681352704       14.2057048978       22.3369834893
  H         2.3043566086       14.4445592786       24.0263158854
  C         3.7550183859       12.9787415765       23.8844472023
  S         1.7211236761        8.8349006473       22.6454026966
  C         2.2554884708        9.6541523759       21.2353700272
  H         2.2054736671       11.6722031162       20.5449882122
  C         0.5832735140       10.1235109112       25.8039173709
  H         0.4998678936       13.7573611020       25.6498119760
  C         0.0858733881       12.1361074852       26.8201626804
  H         3.9785586391       12.1098775605       23.3212818142
  H         3.5136707810       12.6860626556       24.9486014106
  C         5.0416207755       13.8799838400       23.7809635075
  C         2.7608312785        8.9804455170       20.0022852453
  C         0.1785366925       10.7495066341       26.9957647720
  H         0.5752952798        8.9996782834       25.8245561730
  C        -0.4926270866       12.5263233484       28.0421314515
  H         5.7930426759       13.3977459222       24.2979969194
  H         4.8189998130       14.8778794161       24.2738044301
  C         5.3786076780       14.1846915543       22.3102918348
  C         2.6395211504        7.6332981756       19.7262434540
  C         3.2976975960        9.8963670978       18.9518493381
  C        -0.2989256612       10.1270919124       28.2968024259
  C        -0.7030311514       11.4605773695       28.9018080528
  S        -0.9697710318       14.0187817945       28.7971313192
  H         6.2902792242       14.6905964442       22.2741378875
  H         4.7970531454       15.0016521673       21.8704591724
  C         5.5114313469       12.9129694906       21.4424189492
  N         2.1065381147        6.6709309931       20.5907192392
  C         2.8898145107        7.1359935758       18.4855468205
  C         3.6662404860        9.4017197589       17.6936507408
  H         3.6368260742       10.8877679232       19.2296804549
  C         0.8178938479        9.3185114203       29.0706256611
  C        -1.6158361523        9.4082575152       27.9953153988
  C        -1.1804054468       11.8080202606       30.1973813672
  C        -1.3012051110       13.1708785342       30.3045538803
  H         5.7164982896       12.1052348510       22.1107541870
  H         4.5228478499       12.6911960951       20.9576017871
  C         6.6536379122       12.9515493417       20.4856585487
  S         2.1350716704        5.1997829606       19.8603940633
  N         2.6173817707        5.7763785297       18.4293269986
  C         3.3559212356        7.9626847934       17.4309206674
  H         4.1812477628       10.0062364840       16.9793554231
  H         1.1394666881        8.5025697359       28.4796181084
  H         0.2822846899        8.8846485399       29.8655249664
  C         1.9636236064       10.1460673824       29.5330376322
  H        -1.4413292493        8.6212248790       27.2435177048
  H        -2.0386659429        8.9025337247       28.8697060766
  C        -2.7840533002       10.2421768818       27.4256501046
  H        -1.3799937128       11.0081854164       30.8557936769
  C        -1.6596526742       13.8257243159       31.5758090516
  H         7.0466690784       11.9027738659       20.3248552444
  H         7.5387881861       13.5508075111       20.8563343436
  C         6.2655728696       13.5035178993       19.0813965537
  C         3.6532933209        7.2729982197       16.2494172703
  H         2.4301533881       10.7101595863       28.6276077294
  H         1.5195983090       10.8501899350       30.2774401893
  C         3.0392998243        9.3623025064       30.3661714827
  H        -2.4925327641       10.4623945640       26.3528578828
  H        -2.8987037168       11.2347566559       27.9347821515
  C        -4.1151126729        9.4836342206       27.4875372287
  C        -1.7500910218       15.3078323275       31.8339128745
  C        -1.8810414867       12.9968972525       32.8257838588
  H         5.5047695996       12.7927143331       18.6799392094
  H         5.7492676659       14.5247570792       19.0255663346
  C         7.4608108675       13.3833111644       18.1262816713
  H         3.5938100642        6.1438925879       16.2713883883
  C         3.9233284153        7.7797074298       14.9919166638
  H         3.5361612263        8.5554457440       29.7200179388
  H         2.6359123786        8.8527277712       31.2503768584
  C         4.1137017176       10.3457800187       30.8094867571
  H        -4.1768877492        8.4613332609       27.1272990501
  H        -4.4755282277        9.4185599575       28.5171127717
  C        -5.1879743160       10.4031801110       26.8755177495
  N        -1.3918357710       16.3710878658       30.8812501772
  C        -2.1199488801       15.8713067669       33.0585984125
  C        -2.2960179583       13.5703660872       34.0090782353
  H        -1.8412501802       11.8570383112       32.8557489362
  H         7.4511226144       12.5350932972       17.5739610300
  H         7.5325472314       14.2352965648       17.5207532935
  H         8.4204629073       13.2858388153       18.6941175961
  S         3.9771803257        9.4246605352       14.4667481868
  C         3.9794245477        6.8271965014       13.9193043357
  H         4.0313307589       11.2695174307       30.3700574192
  H         4.0252561836       10.5229311209       31.8524157703
  C         5.4790256295        9.7837069304       30.7035928342
  H        -4.8080825790       10.8788795928       26.0132670314
  H        -5.3605938776       11.2335144444       27.6288896827
  C        -6.4847289825        9.6767250979       26.5601152509
  S        -1.5318809240       17.8186765908       31.6771686603
  N        -2.1385191714       17.2864092018       33.0462743146
  C        -2.4092360549       15.0719939574       34.2110054765
  H        -2.4247068747       13.0074996655       34.9149859421
  C         4.2946185217        8.8309631017       12.8419098601
  N         4.2223761270        7.5122459166       12.7632625552
  O         3.8698560809        5.6195540606       14.0855166815
  H         6.1805701234       10.4390536156       31.2523057849
  H         5.8051535492        9.8679624130       29.6837237181
  C         5.7515754574        8.2334314601       31.0440113621
  H        -6.3320096650        9.0088948667       25.6986536232
  H        -6.9771040659        9.1609922572       27.3427250588
  C        -7.5373904546       10.8112827304       26.2283190528
  C        -2.6661632134       15.7491056923       35.4546087689
  S         4.3772419723        9.9082495832       11.3968170761
  C         3.9737807377        6.8287318124       11.4770084040
  H         6.5782851342        8.0184538792       31.7332097807
  H         4.8893361011        7.7233623174       31.3689923391
  C         6.2299464717        7.4932517404       29.7776760519
  H        -7.4017651847       11.4975585335       25.4323368037
  H        -7.6918285437       11.3217457964       27.1552372862
  C        -8.8521541892       10.0382461683       25.9377314034
  H        -2.3224266148       16.7257340603       35.5581012247
  C        -3.3807132985       15.4276287352       36.5785460819
  H         4.5870058091        7.1280237919       10.6711839655
  H         4.2511511012        5.7892615247       11.5292769056
  C         2.5149879608        6.9150951590       11.1543508319
  H         7.1078184742        7.9770795044       29.3060522207
  H         5.4735188123        7.4724937385       29.0540501752
  C         6.5199219166        6.0239960019       29.9750556579
  H        -9.0826634527        9.2841444442       26.6681416875
  H        -9.7219092185       10.7026352074       26.0124249046
  C        -8.8291871119        9.4799584783       24.5015981223
  S        -3.9481974945       13.8543875450       37.0396907751
  C        -3.3999015453       16.3745577150       37.7581936092
  H         2.1917175781        5.9671271205       11.0247924238
  H         1.9555265709        7.3697026460       11.9888821099
  H         2.3143556135        7.5193857238       10.2983854399
  H         7.2021836707        5.8210196569       30.7653401712
  H         6.8976710493        5.5709831218       28.9997002402
  H         5.6013966925        5.5590940907       30.1517312833
  H        -8.0525510266        8.7405974456       24.3786946159
  H        -8.5659109215       10.2303994492       23.8678463756
  H        -9.7963710813        9.0436378436       24.3174984957
  C        -4.3615064522       14.5492990061       38.5996464949
  N        -4.1094226175       15.8566725289       38.7525599901
  O        -2.9348516469       17.5124828485       37.6643995008
  S        -5.1812217766       13.7347515363       39.9428031850
  C        -4.1671361994       16.6279071171       39.9602812596
  H        -4.3398738769       17.6425425374       39.5741546660
  H        -4.9939175893       16.4368048674       40.6176943376
  C        -3.0022930909       16.5352439349       40.7754390261
  H        -2.6529562917       17.4910926086       41.2235496682
  H        -3.2632457714       15.8546397646       41.6236195536
  H        -2.2089577250       16.1192564878       40.1988566457
