352
 i =    21800, time =    21800.000, E =        24.1474695632
  H        10.7572242212        7.0312717975       32.9990305215
  C        11.0858283864        6.2054150567       32.3825886612
  H        11.8801570916        6.6388930311       31.7602317766
  C         9.9259717753        5.8835200070       31.4690006239
  C        11.4971179347        4.9770592456       33.2725200463
  C        10.3209524345        5.1602119736       30.2357779922
  H         9.0868399954        5.4005768436       31.9274206751
  H         9.6594025100        6.8685678493       31.0490390924
  H        12.3753900113        4.4495735587       32.8891480418
  H        11.7033280421        5.3049919831       34.3067692468
  H        10.7211251736        4.2283588204       33.3687858124
  C         9.3218377099        5.3846649630       29.0426967579
  H        10.5266057474        4.1294052646       30.3811254169
  H        11.2736794918        5.4980216789       29.8864363721
  C        10.0073688878        5.3821750330       27.6436068209
  H         8.4915896906        4.7712180637       29.0360970870
  H         8.9796316077        6.4373050506       29.0840392059
  C         9.1674775145        4.7985323518       26.5439337514
  H        10.8549059693        4.7386473087       27.6377132348
  H        10.3842401598        6.3768743875       27.4137806958
  C         7.9328965389        5.6616197236       26.1802074138
  H         9.7127461929        4.7331643883       25.6175134268
  H         8.8592166257        3.7079152832       26.6772963931
  C         6.8412817573        4.9840953206       25.4497313738
  H         7.5782012343        6.2113507275       27.0309126868
  H         8.2854679287        6.5810664029       25.6834769988
  C         6.4970384979        3.6316819660       26.0407627332
  C         7.2942963372        4.3003322487       24.2290427355
  C         5.6099460932        5.8069996588       25.1643258878
  C         6.8293284535        2.5144309432       25.2315508215
  C         6.0062215821        3.2488256720       27.2768996000
  C         7.3802757621        2.9790770566       24.0833566423
  C         7.8221115437        5.0705168577       23.1211752839
  H         5.9211128780        6.5804932555       24.4721265616
  H         5.3751172319        6.2446778681       26.0611003115
  C         4.3182013293        5.1100049393       24.5828513890
  S         6.3579088270        1.0163363232       25.9348990009
  C         5.8936235052        1.9066574003       27.4056641344
  H         5.8954406654        4.0743723852       28.0215694126
  C         7.8380098600        2.4236814649       22.8904454540
  H         7.7502436343        6.1527203468       23.2204042501
  C         8.2605533362        4.4932215521       21.9762106016
  H         4.5245573173        4.6945951217       23.6002344989
  H         4.2095893689        4.1742428847       25.1126133650
  C         2.9902051961        5.8994502924       24.5532793989
  C         5.6319162509        1.2459780943       28.7110684415
  C         8.3088346228        3.1735965245       21.8821196877
  H         7.8801849285        1.3523804811       22.7867597375
  C         8.6886878908        4.9168488615       20.7828353883
  H         2.2945280577        5.3399528017       23.9842754026
  H         3.1882509758        6.7979099852       23.9514804201
  C         2.3527014637        6.0067565443       25.9036709417
  C         5.6433919156       -0.1626094896       29.0139816863
  C         5.1278581188        2.0582754754       29.8335393494
  C         8.6940984619        2.4894598057       20.5673677214
  C         8.9233666657        3.8834387292       19.8965840126
  S         9.0376316926        6.4694372844       20.0829614431
  H         1.6154019787        6.8194751683       25.9186412332
  H         3.0882579127        6.5624913232       26.4454066072
  C         1.8257766768        4.6630035191       26.4808540153
  N         5.9469681589       -1.1053537617       27.9937400026
  C         5.4402316401       -0.7676565754       30.2419890482
  C         4.9825687610        1.4986926577       31.1292133984
  H         5.0919368310        3.1321827254       29.7160125048
  C         7.5578061111        1.7189142488       19.8516436360
  C         9.9660966301        1.6052100935       20.6805967910
  C         9.3731955692        4.2891253019       18.6415105841
  C         9.4245333605        5.6523587292       18.5772932904
  H         0.9482663324        4.2493493614       26.0104015168
  H         2.5545513545        3.8829678140       26.4872195317
  C         1.2362445360        4.8186790674       27.8377235354
  S         5.8143005662       -2.5869079403       28.6929591767
  N         5.5942381236       -2.1248238716       30.2182474615
  C         5.1796506300        0.0547832914       31.4153591311
  H         4.7821938531        2.2119355593       31.8802810627
  H         7.4732226285        0.7679812867       20.3479750216
  H         7.8682509905        1.5290813834       18.8189130565
  C         6.2152238514        2.4355991281       19.6820902769
  H        10.3013005923        1.2983439670       19.7079892408
  H         9.7689741900        0.7289098517       21.2696626883
  C        11.1026521388        2.4476808093       21.2504321800
  H         9.7240454686        3.5178507153       17.9510669372
  C         9.8578517289        6.4142587127       17.3364648170
  H         0.6971126792        3.9327338241       28.0942116306
  H         0.5774705856        5.6848254785       27.8312115864
  C         2.2982560204        4.9362573451       28.9367695632
  C         4.9811846939       -0.5616856646       32.6464073386
  H         6.3847976953        3.3039469226       19.1059521493
  H         5.8208809797        2.7381468154       20.6572129381
  C         5.2574784757        1.6049893656       18.8937672986
  H        10.8943964014        2.7233288590       22.2740250712
  H        11.2236609907        3.4096927008       20.8145146891
  C        12.4137214965        1.6303184534       21.0434717817
  C         9.8120272631        7.7610828481       17.1880232288
  C        10.1830304584        5.6480005212       16.1103377752
  H         2.9283530079        4.0132264544       28.9143300681
  H         2.9957885710        5.7443712318       28.6809744992
  C         1.6906213028        5.1735550294       30.3203528948
  H         5.3031794133       -1.4946766007       32.5726277459
  C         4.5159203874       -0.1374225252       33.9156047870
  H         4.8687681062        0.8114528248       19.5457883263
  H         5.7717405236        1.1712841074       18.0430874856
  C         4.1553637014        2.5950560725       18.2624045130
  H        12.5632467941        0.8239315204       21.7345553718
  H        12.4232614101        1.2836006904       19.9947895654
  C        13.6880896310        2.5397208777       21.0549370995
  N         9.4403503389        8.7300533499       18.1610879622
  C        10.1487145529        8.3530698550       16.0144721383
  C        10.5405158880        6.2067778958       14.9080910066
  H        10.0390000096        4.6091256172       16.0603009411
  H         1.2730011341        6.1569266071       30.1950824824
  H         0.8521251228        4.4703084194       30.5786107318
  H         2.4440829825        5.1830648375       31.1560116718
  S         3.9597054452        1.4538983897       34.4181663796
  C         4.4765885105       -1.2113028434       34.9645520642
  H         4.0143090624        3.5343538746       18.8750315885
  H         4.4235151449        2.8178048826       17.2859031989
  C         2.8053743188        1.9137760647       18.2667980575
  H        13.5040504992        3.3128209736       20.2338827598
  H        14.5234881773        1.8683938788       20.7718282764
  C        14.0228334732        3.1803590329       22.4224674127
  S         9.4403771697       10.2062889057       17.4474279206
  N        10.0883054862        9.7272852829       16.0585533171
  C        10.5861490621        7.6290233508       14.8524375301
  H        10.6672619239        5.5494430455       14.0433100287
  C         3.9550195519        0.6648245348       36.0361106935
  N         4.0782080989       -0.6611025689       36.1269501817
  O         4.8030918263       -2.3210754485       34.7486748938
  H         2.1124766091        2.5227312334       17.8416790285
  H         2.6420342938        1.6063376403       19.2989988507
  C         2.9076654541        0.5957119772       17.4678156662
  H        14.7101830576        3.9883591391       22.2210742979
  H        13.0653295423        3.6295499176       22.6784918557
  C        14.6199690076        2.2325790133       23.4523495651
  C        10.8450933748        8.3993013072       13.6870676654
  S         3.8653417704        1.4177434382       37.6290840521
  C         4.3022624676       -1.4607155473       37.3219671864
  H         2.2113051654        0.6267126536       16.5890850184
  H         3.8557916616        0.4535226245       17.0588211408
  C         2.5198878732       -0.5762985022       18.2949536734
  H        14.1864952797        1.2496464445       23.4581774804
  H        14.3475667588        2.5949935841       24.4478956935
  C        16.1285558451        2.1172177627       23.5455743678
  H        10.4846926171        9.4214266246       13.8119137758
  C        11.3192714668        8.1763132856       12.3761589525
  H         3.6610100111       -1.1085549725       38.1752884111
  H         4.0839536666       -2.4593061482       37.1077535365
  C         5.7459040257       -1.3968295232       37.8805984601
  H         1.6061612131       -0.3646207870       18.9188956925
  H         3.2897943917       -0.8488699269       19.0722781746
  C         2.1902834493       -1.8209164682       17.5786642343
  H        16.4334916838        2.8551296422       24.2549629928
  H        16.3633147149        1.0722019008       23.8552270785
  C        16.9219847462        2.3479940307       22.2607227847
  S        11.9273749774        6.7058421108       11.7157471380
  C        11.4003011452        9.3481366525       11.4984494108
  H         5.5860754237       -0.6328588752       38.6434578650
  H         6.0565868595       -2.3542917556       38.3198355624
  H         6.4872485276       -1.1779778413       37.1218364663
  H         1.5381469123       -1.6801124398       16.7017491951
  H         1.6943923113       -2.4283690800       18.3479966069
  H         3.1820295364       -2.2373704518       17.2027054611
  H        17.9323836040        1.9812737011       22.3126427819
  H        16.9260652700        3.4253473920       22.0052164751
  H        16.3979568545        1.8776780076       21.4407609996
  C        12.2315228193        7.6143573518       10.2331406271
  N        12.0023976278        8.9553783058       10.3775262910
  O        11.0241520533       10.4771128974       11.7620370985
  S        12.8978969830        7.0389136306        8.6725604787
  C        12.2370583643        9.9409934067        9.3174730036
  H        12.5416518912       10.8392818414        9.7836246710
  H        13.1347241692        9.7328583466        8.7465496661
  C        11.0002124863       10.2566310075        8.4556383155
  H        11.2089530762       11.1994330064        7.9000954183
  H        10.7915520220        9.4577038155        7.7020778686
  H        10.1169602722       10.3266260726        9.1176480878
  H        -3.0180016777       15.0778641723       16.3623179766
  C        -3.2772946689       14.0363016698       16.6060355474
  H        -4.3292055969       14.0598321893       16.7919609657
  C        -2.2296337703       13.7622364622       17.6724368385
  C        -3.0817460254       13.3277310054       15.2592634927
  C        -2.8416152833       13.8881745388       19.1076223008
  H        -1.9356364179       12.6777444808       17.5931024037
  H        -1.2719804718       14.2265591024       17.6066982737
  H        -3.4432416137       14.0345060101       14.4561118538
  H        -2.0444600119       12.9243758195       15.1400909259
  H        -3.6867324858       12.3844294743       15.3596599710
  C        -2.0775408246       13.0896551787       20.1517577356
  H        -3.9018125610       13.7554861601       19.0779803986
  H        -2.7821893895       14.9813607698       19.3365581028
  C        -2.5309739814       13.2484072635       21.5870013171
  H        -2.1690338421       12.0801838124       19.9017757595
  H        -0.9642212312       13.3452188129       20.1308269868
  C        -1.3812876615       12.7541200307       22.5542363493
  H        -3.4907332463       12.7542855519       21.6470680273
  H        -2.5927072023       14.2892900861       21.8089082410
  C        -0.1820026073       13.7851398155       22.7320152069
  H        -1.8443611494       12.8110133597       23.5167092880
  H        -1.0135878971       11.7568758765       22.1904039517
  C         1.0152140515       12.9763420439       23.2681925594
  H         0.0821818304       14.2799916521       21.7920992699
  H        -0.3910035689       14.6422757277       23.3754756325
  C         1.4067974099       11.6660194294       22.5772094430
  C         0.6788563251       12.2543961577       24.4850967103
  C         2.3653606033       13.8544071701       23.4140129096
  C         1.2792619186       10.5745271285       23.4180179204
  C         1.9590274080       11.3258691121       21.3512324698
  C         0.7969429341       10.9268729697       24.6130326005
  C         0.3008606993       12.8879011676       25.6479550229
  H         2.5725235827       14.2440372300       22.4145793370
  H         2.2723786201       14.6813645322       24.0024835332
  C         3.5724081965       13.0756492543       23.8534388190
  S         1.4993011164        9.0747878535       22.6002996795
  C         2.0395712141        9.9543317844       21.1749137201
  H         2.1053707766       12.0345982913       20.5507243543
  C         0.3777342123       10.2711685224       25.6999141718
  H         0.2853659140       13.8955066714       25.5976921899
  C        -0.0823239404       12.2207777857       26.7880054733
  H         3.8678754404       12.3207618956       23.1416113835
  H         3.3761287196       12.5967149480       24.8560679721
  C         4.8311934478       14.0137129350       24.1171767737
  C         2.4275280282        9.2753769072       19.8994024962
  C        -0.0938525366       10.8685457917       26.8488529619
  H         0.2796833438        9.2009546509       25.7575480977
  C        -0.6012762628       12.6148934210       27.9931205645
  H         5.5774520484       13.6258586217       24.7543111490
  H         4.6023063617       14.9081836128       24.6855590372
  C         5.5961689850       14.3551380603       22.7898972808
  C         2.4363748867        7.8625382465       19.6789409735
  C         2.8735918232       10.1208325185       18.7378491388
  C        -0.5720693218       10.1252128962       28.0705884336
  C        -0.8002288948       11.4819060617       28.7582783340
  S        -0.8889711635       14.1106210878       28.7433605255
  H         6.2563242299       15.1925425386       23.0277713587
  H         4.8429167066       14.6841089909       22.0906654578
  C         6.4368770268       13.0969938696       22.4450788837
  N         2.1428319804        6.9239043582       20.6496991181
  C         2.8281751231        7.2924749037       18.4670147197
  C         3.2376820042        9.5164710703       17.5173903595
  H         2.8845813669       11.2099766904       18.8050975780
  C         0.6430905842        9.3155778730       28.7196344361
  C        -1.8839888109        9.2975413245       27.9797401449
  C        -1.1953459342       11.8671272385       30.0456221801
  C        -1.1960963509       13.2374459775       30.2193280115
  H         7.0132886670       12.8050935395       23.3253845773
  H         5.7521081064       12.3281180666       22.1170446914
  C         7.5613733837       13.4566552533       21.4092015798
  S         2.1604610917        5.4871329495       19.9309956827
  N         2.8754898953        5.9068639568       18.4732407414
  C         3.2027200561        8.0693963255       17.3329303781
  H         3.6036124431       10.1231676047       16.7131834029
  H         0.9965201613        8.5652297065       28.1029471279
  H         0.2425988143        8.7434764478       29.5577118491
  C         1.8152278453       10.1343450355       29.0754306488
  H        -1.8114680570        8.5157638447       27.2296106057
  H        -2.1016557794        8.9130957224       28.9487320889
  C        -3.0954102372       10.1165462686       27.5143030363
  H        -1.2770593342       11.0277041327       30.7405526456
  C        -1.6206458833       13.8927733892       31.5400857906
  H         8.4155691340       13.0361882941       21.8270208835
  H         7.6172172875       14.5187046864       21.3230627537
  C         7.2286152883       12.8755702324       19.9946161835
  C         3.4305381763        7.4318857682       16.0923743381
  H         2.3146558660       10.5349541698       28.1437163087
  H         1.6765135499       11.0036729104       29.7153329889
  C         2.8518752912        9.3208497545       29.9289118072
  H        -2.6873874687       10.7548815134       26.6449648438
  H        -3.3451275900       10.9238832087       28.1972838739
  C        -4.2980545500        9.3281017757       27.0342305152
  C        -1.7636536786       15.3102235956       31.7973353654
  C        -1.8695126185       13.1002492509       32.7566362980
  H         8.1045575988       12.5825224222       19.3692858706
  H         6.5901797606       11.9794497544       20.0248372669
  C         6.4837411603       13.8778808994       19.0812192778
  H         3.4191493771        6.3496252339       16.1272772067
  C         3.7046123951        7.8271378352       14.8185693084
  H         2.8197404239        8.2707486677       29.7418673512
  H         2.5433872848        9.4143628621       30.9583937337
  C         4.3158420115        9.8796024692       29.8224006885
  H        -4.3475414587        9.4610858691       25.9284347381
  H        -4.3005892920        8.2947374697       27.2926900074
  C        -5.6750408284        9.8050880707       27.5652891967
  N        -1.6226711996       16.2563580361       30.7868731979
  C        -2.0698218819       15.7937642358       32.9760719912
  C        -2.3651784207       13.5641418421       33.9740567267
  H        -1.6546245068       12.0308165423       32.7316624673
  H         7.2609135764       14.3618854334       18.4879317615
  H         5.7946676527       13.2625590486       18.5437492133
  H         5.8714654300       14.5768633713       19.6197524503
  S         4.1597171887        9.4056351840       14.2516995892
  C         3.7103699830        6.7486118441       13.7889510621
  H         4.5203601434       10.3814001747       28.8171221019
  H         4.4912798619       10.5556621226       30.7069700261
  C         5.3746213640        8.7610222306       29.8151189615
  H        -5.6876688391       10.9034380296       27.6656830218
  H        -5.8256796894        9.3499020755       28.5238140387
  C        -6.8634322142        9.3602583937       26.6753851572
  S        -1.7866372121       17.8019837361       31.3616851204
  N        -2.1237195217       17.2133591441       32.9115616161
  C        -2.4271954330       15.0295510673       34.1375637086
  H        -2.5863175096       12.9287880361       34.8503574044
  C         4.2895530138        8.6364076886       12.7385741334
  N         4.1440685180        7.3150555923       12.6383022636
  O         3.6053301453        5.5746464422       13.9958028131
  H         6.3175398292        9.1537392820       30.2015028833
  H         5.5380889232        8.4364398312       28.7888481429
  C         5.0875101418        7.5717776406       30.7697305832
  H        -6.5936216276        9.4284922469       25.6552613007
  H        -7.0990600978        8.2379949766       26.6398029455
  C        -8.1490041443       10.1153631618       27.0225223501
  C        -2.7449090162       15.7540960008       35.3562392757
  S         4.7033826944        9.5464136829       11.2905687879
  C         4.2435814209        6.6008846177       11.4347590714
  H         4.7925043433        8.1069935679       31.6541448332
  H         4.3028866274        6.8522849518       30.5236327198
  C         6.3329983892        6.8667009638       31.1802750429
  H        -7.9986353818       11.2204864038       27.0114551136
  H        -8.3255353443        9.8138336900       28.0355670172
  C        -9.2952321030        9.6893871954       26.1525358508
  H        -2.4685369946       16.7876028665       35.3189786051
  C        -3.2027474778       15.4210672585       36.6244556179
  H         4.8641886527        7.0049086224       10.6314632974
  H         4.7535642026        5.6492808258       11.6779902346
  C         2.8597918565        6.3249653808       10.7676610617
  H         6.8643432273        7.5041521648       31.8648512389
  H         6.9181492266        6.7454906831       30.2956405083
  C         6.0855887655        5.5099022527       31.8864712204
  H        -9.4945165107        8.6161107918       26.3005168017
  H       -10.1474465710       10.2597619823       26.5370154077
  C        -8.9268757572       10.0286363005       24.7583261172
  S        -3.8114747794       13.9015532686       37.1098622891
  C        -3.4223528772       16.5142475022       37.6401269379
  H         2.2254916749        7.1992043049       10.9477925262
  H         2.8644745715        6.1256171866        9.7237818636
  H         2.3247394086        5.5305551274       11.2505366354
  H         5.3151068561        4.9100770575       31.5233009013
  H         5.7907854316        5.5651367838       32.9039323976
  H         7.0617250333        5.0035525472       31.8247412604
  H        -8.1959676630        9.3233985698       24.4275496739
  H        -8.4487839997       11.0191116345       24.6949090704
  H        -9.8289878947       10.1783674975       24.0467646543
  C        -4.2544871773       14.7101637301       38.6390348148
  N        -4.0548889167       15.9999991529       38.7431152881
  O        -3.0783119120       17.6597557700       37.5431812781
  S        -4.8904019803       13.9259542405       40.0251873419
  C        -4.1332488049       16.7709664671       40.0064409122
  H        -4.2752067704       17.8207205203       39.7220772270
  H        -4.9120116348       16.3991495851       40.6762413471
  C        -2.7597759773       16.6602433284       40.6412374741
  H        -2.7063489413       15.7419295770       41.1223061152
  H        -1.9196650541       16.6022801987       39.9738819505
  H        -2.6004962454       17.5641998740       41.3031854165
