352
 i =    36900, time =    36900.000, E =        25.1967205754
  H        11.4705275865        7.4574782448       32.6567412647
  C        11.2872971784        6.3505905398       32.6227822453
  H        12.1199207588        5.8879249063       32.1543244209
  C        10.0814096279        6.1295328042       31.6907782752
  C        11.1085561339        5.6824631129       33.9586641144
  C        10.3934433266        6.6530178498       30.2249651401
  H         9.9134265420        5.0548527032       31.7309080037
  H         9.1375729972        6.5581337168       32.1299509528
  H        11.9642226892        5.6715303006       34.6349231343
  H        10.2902860525        6.2009623839       34.4131264132
  H        10.8043147570        4.6278909230       33.8060098217
  C        10.0434891812        5.6351931758       29.1776582470
  H        11.4444497326        6.7536323973       30.2760215326
  H         9.8937785311        7.5611895382       29.8956475389
  C        10.3400115877        6.0834822701       27.8298934346
  H        10.5997172715        4.6878690357       29.3718914744
  H         9.0218396315        5.4626012109       29.2786393719
  C         9.4113664391        5.4130139027       26.8421210610
  H        11.4345672592        5.8738764621       27.5467245323
  H        10.2057494418        7.2177520558       27.7449221307
  C         8.1463606514        6.2246345937       26.5951773389
  H         9.9579628396        5.2613400973       25.8595387223
  H         9.1678466893        4.4128834862       27.1169259946
  C         7.0599982795        5.4873283436       25.7783346600
  H         7.7615324270        6.4643833926       27.5954662959
  H         8.3501135753        7.1134830502       25.9525503087
  C         6.7513681478        4.0840427521       26.4370857615
  C         7.5616995118        4.7410078360       24.5217535246
  C         5.8268179289        6.4067638303       25.4396522009
  C         7.0607752309        3.0326128025       25.6520669254
  C         6.1604111486        3.7382085318       27.6458144097
  C         7.6332939048        3.3921500031       24.4692198444
  C         7.9937803790        5.3935602490       23.3452809965
  H         6.0382050801        7.1677931284       24.7474425084
  H         5.5223929201        6.9866785183       26.2621029711
  C         4.5680684706        5.6553838698       24.9192549744
  S         6.6992252957        1.5133732582       26.3276426413
  C         6.1739539350        2.3552937352       27.7293937646
  H         5.7811696444        4.5528157545       28.3135754421
  C         8.0836707534        2.7440284437       23.3330524288
  H         7.8966282735        6.4743995320       23.2524938434
  C         8.4373271723        4.6999563000       22.1879937042
  H         4.6011569746        5.5494348105       23.8278417739
  H         4.4886187659        4.6397989812       25.3497280883
  C         3.1938659838        6.3572216822       25.1796822251
  C         5.8048022047        1.6483002291       29.0463727169
  C         8.4335465226        3.3427339805       22.1437341992
  H         7.9929280604        1.6337687310       23.3300161370
  C         8.7755019917        5.0425308451       20.9159410437
  H         2.4897738389        5.8796442356       24.5533739365
  H         3.1995894428        7.4369188078       24.8518751433
  C         2.6834607844        6.4352165454       26.6547942472
  C         5.8092595232        0.2223802834       29.2297763466
  C         5.3445452315        2.4828915792       30.2285186510
  C         8.6179265112        2.6092609740       20.8988199738
  C         8.8671604100        3.9125231573       20.0863651964
  S         9.0762643239        6.5650274049       20.1331932645
  H         1.7272152740        6.9056065270       26.5174764023
  H         3.2808060861        6.9677965786       27.3387021526
  C         2.3217186499        5.0825767266       27.2034981665
  N         5.9717151335       -0.7845164280       28.2352040238
  C         5.6283858262       -0.2878306572       30.4901170737
  C         5.1627674494        1.9132810657       31.4968085467
  H         5.1973853687        3.5780853671       30.1411839434
  C         7.2751074258        1.9588218438       20.4518231857
  C         9.9113139389        1.6850120289       20.9979713753
  C         9.1638025405        4.2656216526       18.7698639156
  C         9.3071762639        5.6211234176       18.6254396022
  H         2.2795497718        4.3016781275       26.4581903684
  H         3.1838899466        4.8864419143       27.8586535156
  C         1.0299658856        5.1349069221       27.9538684926
  S         6.1532756995       -2.1917293154       29.0192815462
  N         5.8513259897       -1.6530171257       30.5319713211
  C         5.3957212249        0.4586367750       31.6763726526
  H         4.9253864284        2.6834811932       32.3251606290
  H         6.9319640995        1.2638240394       21.2288106635
  H         7.6955916305        1.2306640373       19.6970550730
  C         6.1665603382        2.8450561027       19.8508635173
  H         9.8426894861        1.0749229010       20.1684932652
  H         9.8521605863        1.0733823681       21.9150346083
  C        11.2581055084        2.4570930811       21.0129982138
  H         9.1758872580        3.5317171708       17.9645144465
  C         9.7022754822        6.3051478257       17.4060695821
  H         0.6236608593        4.0916032199       28.1604302567
  H         0.4280767808        5.5505133954       27.1545961583
  C         1.0807852936        6.0482501414       29.1557859609
  C         5.1977958273       -0.1989565925       32.9590426016
  H         6.4052216964        3.0774719566       18.8368853790
  H         6.2044263301        3.8596956299       20.1874173854
  C         4.6974567194        2.3157116680       19.8637338608
  H        11.1857432555        3.1752237625       21.8510342136
  H        11.5159220086        3.0270853364       20.1372457428
  C        12.3814608940        1.4159136349       21.0877318250
  C         9.6882479428        7.7340919987       17.2768509305
  C         9.9952698038        5.4103399918       16.2233580716
  H         1.9368839755        6.7497237349       29.1838257547
  H         0.1794723122        6.6057161451       29.0312692912
  C         1.1144867548        5.3579789435       30.5445906605
  H         5.3170919575       -1.2346444310       32.7955239411
  C         4.7892482419        0.2874804573       34.1935743325
  H         4.1109514479        2.7210620861       20.6590535383
  H         4.6742874598        1.2357889041       20.1074670501
  C         3.9480059787        2.5422741936       18.5207611796
  H        12.4640929937        0.8734711484       22.0568591632
  H        12.1982413537        0.6657766047       20.2745843743
  C        13.8046424628        2.0430620491       20.9061913459
  N         9.4619268583        8.7079379924       18.2831147419
  C        10.0033966494        8.3402963629       16.0432274439
  C        10.1896318625        6.0430166723       15.0072388450
  H         9.9515863412        4.3963034505       16.3200854734
  H         0.4651010062        4.4767118125       30.4649143685
  H         2.1214486854        5.0447611564       30.8256165623
  H         0.8276459667        6.0528208553       31.3117235874
  S         4.4832549795        1.9453478850       34.6777262909
  C         4.7037430789       -0.6830380481       35.2649272237
  H         3.7212100748        3.5913515291       18.3251105497
  H         4.6414939330        2.2101975601       17.6575596749
  C         2.6712161217        1.7303551051       18.3534557217
  H        13.7109355514        2.8005072527       20.1779012386
  H        14.4240708150        1.3074732118       20.4614843136
  C        14.3602446237        2.6659290013       22.2231312723
  S         9.7343549516       10.1967605316       17.6005941969
  N        10.1615306555        9.7597936424       16.1136624418
  C        10.2605854923        7.5611666354       14.8636866754
  H        10.2811296035        5.3561302597       14.2104430914
  C         4.3018992273        1.2820185550       36.2634523223
  N         4.2778056516       -0.0781255812       36.3704849920
  O         4.7810711351       -1.9049978585       35.0724232750
  H         2.0556622783        2.0348110387       17.5533906795
  H         1.9599894069        1.7961553241       19.1441986622
  C         2.9341420594        0.2319903312       18.1317343120
  H        15.0255089187        3.5178079290       22.0807191591
  H        13.4308001024        3.0331833412       22.6581448367
  C        14.9562591843        1.5847198939       23.1817914597
  C        10.5305242337        8.2658248797       13.6422741000
  S         3.6240266709        2.1490469903       37.5625811480
  C         4.2364288188       -0.8601566032       37.6040246164
  H         3.8369623039       -0.0040726808       17.4709975481
  H         3.0643505778       -0.2347598665       19.0946324126
  C         1.7679776383       -0.5494852323       17.4600118799
  H        15.0254054674        0.6705418621       22.6415842783
  H        14.2958845958        1.3513949172       23.9683578464
  C        16.4120042219        1.7889866633       23.6690299711
  H        10.5105551255        9.3373349738       13.6076571852
  C        11.1502750235        7.7733304479       12.4300797731
  H         3.4848467015       -0.3364428491       38.2450664471
  H         3.8716337002       -1.8732262806       37.3265717712
  C         5.6185096262       -1.1111957257       38.3301756343
  H         1.3915108014       -0.0304142862       16.5679844529
  H         0.9054185021       -0.6380924491       18.1396104329
  C         2.0241928501       -1.9659940616       16.9244251344
  H        16.4848116856        2.5807971998       24.4492283169
  H        16.8686430339        0.8995334265       24.2440394900
  C        17.3688691947        2.0795195901       22.5374747735
  S        11.5481387342        6.1175422284       11.9226895463
  C        11.4313611960        8.7672122278       11.3973035285
  H         5.8224523250       -2.1494380090       38.2293667082
  H         6.3323539371       -0.5436842639       37.8418928959
  H         5.6479190962       -0.7868329886       39.3447875308
  H         3.1212999326       -2.1576997938       16.9498526481
  H         1.8049818027       -1.9038359091       15.9043784982
  H         1.3703886614       -2.6511858161       17.4780870478
  H        18.3909334800        1.7268719354       22.6894060917
  H        17.3169822873        3.1680006387       22.3405938087
  H        17.0235036845        1.6409273987       21.6290021528
  C        12.1457524933        6.8266644470       10.4356305440
  N        12.1539022344        8.1602021019       10.4238395356
  O        11.3113830724        9.9435659330       11.6065615658
  S        12.8047195493        6.0166395267        9.0521496393
  C        12.3314488398        8.9489516467        9.1829508503
  H        12.6079692477       10.0031815993        9.4396243052
  H        13.2298580347        8.6410120483        8.6405222528
  C        11.0716144514        8.8115177121        8.2880752714
  H        10.6956026878        9.7700583447        7.8381578899
  H        11.2230915936        8.1024705159        7.4343453351
  H        10.3187637586        8.3560833791        8.9088099945
  H        -3.9765795235       14.3243556896       16.7974512258
  C        -3.1572992953       13.7476449448       16.3978797877
  H        -3.4461864270       12.7048558675       16.4294814839
  C        -1.9633381430       14.0671352653       17.3369084868
  C        -2.8603337761       14.0389375249       14.8888447652
  C        -2.2274972033       13.3710650158       18.6472808941
  H        -0.9570119097       13.7130769103       17.0275089485
  H        -1.9557376790       15.1466065705       17.5576897512
  H        -2.6677315576       15.0659677130       14.8139886047
  H        -1.8892329174       13.6839912870       14.6516366257
  H        -3.4918989218       13.5665320347       14.1363755668
  C        -1.2234467721       13.6002185461       19.7865560803
  H        -1.9955408759       12.3536278726       18.3803875030
  H        -3.2522356839       13.3274335270       19.0026583933
  C        -2.0002794976       13.7408600207       21.0022279847
  H        -0.5853764158       12.7372223839       19.9113422292
  H        -0.6754045704       14.5037886491       19.6682557384
  C        -1.1594818745       13.1393241422       22.2242634757
  H        -2.9592492234       13.1779481252       20.9799562611
  H        -2.3136838244       14.7800879117       21.1989756893
  C         0.0017997635       14.0017806173       22.6111341725
  H        -1.7236070359       13.1151586896       23.2009139028
  H        -0.9820673360       12.1197021844       21.8676068835
  C         1.1470544292       13.3555962055       23.4126547307
  H         0.3301196955       14.5384490654       21.7233496034
  H        -0.4500954710       14.7781363372       23.3057382191
  C         1.5135027869       11.9526921031       22.6761530649
  C         0.8495967164       12.6627805983       24.6375714100
  C         2.4960708008       14.1713623635       23.6684945322
  C         1.2719587641       10.8573027228       23.4657332973
  C         1.8389466910       11.5967209892       21.4336789105
  C         0.9102743582       11.2964237214       24.7275137482
  C         0.3132425025       13.3444562427       25.7696716185
  H         2.7052172475       14.6893248453       22.7165864556
  H         2.3806139269       14.8948383335       24.4675504249
  C         3.7981456218       13.2896180397       23.9735748999
  S         1.5822195684        9.3563686266       22.7239822016
  C         1.9578758970       10.2459556513       21.2487520959
  H         1.9524176696       12.3309510568       20.6596745592
  C         0.4659482643       10.6759871635       25.8243748551
  H         0.3438257428       14.3894661824       25.7950732869
  C        -0.1044622013       12.7187178819       26.9019935200
  H         3.9209652540       12.5288064352       23.3102378264
  H         3.4963390307       12.8133493882       24.9188804515
  C         5.0435771486       14.1660394443       24.0781088128
  C         2.2924138768        9.4946556585       19.9916855066
  C         0.0271325330       11.3552507738       26.9539449813
  H         0.5252590987        9.6273338141       25.9759046858
  C        -0.5107376872       13.1159733725       28.1565380685
  H         5.8389215261       13.8682496498       24.8548460514
  H         4.5995230126       15.0249130493       24.6178994611
  C         5.6798631475       14.6059644429       22.6747899969
  C         2.4349707068        8.1154347745       19.8093412177
  C         2.3729671131       10.2688515600       18.7135630973
  C        -0.3871099932       10.5978346605       28.2052043577
  C        -0.6999463469       11.9747964452       28.9247398539
  S        -0.8994071963       14.6111549440       28.9022885509
  H         6.4833852059       15.2983189503       22.7799146258
  H         4.7909644799       15.0089513310       22.0676568020
  C         6.5169293904       13.4749587541       22.0269183060
  N         2.2657127010        7.1598339630       20.8241924684
  C         2.6806134530        7.5242814964       18.5357422479
  C         2.6686358280        9.6541852488       17.4419092081
  H         2.2450950485       11.3843045334       18.7660846983
  C         0.7115582166        9.7534542921       28.8305040486
  C        -1.7415145278        9.7779153300       28.0324915126
  C        -0.9740649148       12.3674132878       30.2560350706
  C        -1.1424900702       13.6968207887       30.4321929559
  H         7.2191038875       13.0122214443       22.7361254682
  H         5.9707835201       12.5902191973       21.6681773535
  C         7.3881403996       13.9474686063       20.8183824805
  S         2.5232037825        5.6819112922       20.1464974021
  N         2.8343072096        6.1246073468       18.6664430271
  C         2.8344928623        8.1947647481       17.3021279777
  H         2.6400981378       10.4119185227       16.6521501327
  H         1.1626259769        9.0829976438       28.0632143690
  H         0.3643683303        9.1230267035       29.6580112896
  C         1.8501334663       10.5996890994       29.3945960251
  H        -1.4895918544        8.7442170806       27.7542446287
  H        -2.1785817593        9.6968242870       28.9853821395
  C        -2.8857397575       10.3360773507       27.2049462493
  H        -0.9938982571       11.6532702791       31.0819131057
  C        -1.3988994543       14.3616585289       31.7796866676
  H         7.9271843362       13.1055509741       20.4265069049
  H         8.2682261525       14.5344486603       21.0776419787
  C         6.5483500394       14.5341333019       19.6989088459
  C         3.1601407476        7.4431916692       16.1141313698
  H         2.2085101161       11.1159482681       28.5283513521
  H         1.5455474602       11.2786932347       30.1694263393
  C         2.9371417697        9.6284880428       29.8836708602
  H        -2.4912484276       10.6352985008       26.2745945768
  H        -3.3283569014       11.1571904362       27.6180690915
  C        -4.0788153021        9.2795286907       26.9526104037
  C        -1.5536065948       15.7983262712       31.9958469416
  C        -1.5342527213       13.5487487980       32.9720289677
  H         5.9330284292       15.3395979751       20.0403875316
  H         7.1767829335       15.0484886908       18.9412519751
  C         5.7149695524       13.4638546008       18.9692613731
  H         3.0904483895        6.4002838889       16.1026135956
  C         3.4668882403        7.8255623837       14.8346137325
  H         3.2978043478        8.9351379596       29.1388299258
  H         2.3893995058        8.9892496457       30.7111515927
  C         4.1254160605       10.4861318066       30.4421961848
  H        -3.5324012753        8.4911550293       26.3690738312
  H        -4.4458410371        8.9253951342       27.9524081900
  C        -5.2072107438        9.8091897503       26.0077056609
  N        -1.3828264311       16.7553027412       30.9542677928
  C        -1.8216008168       16.3125357040       33.2791010998
  C        -1.9276800038       14.0522991047       34.2279084862
  H        -1.3244221972       12.5311230975       32.8732073682
  H         6.3340220839       12.6499233690       18.7480768450
  H         4.9052120400       13.1750332379       19.5932434201
  H         5.4767130788       13.8918570909       17.9920461308
  S         3.7063624846        9.3998530683       14.3284241407
  C         3.5122052869        6.7210389990       13.7975457594
  H         4.0682456166       11.4170414176       29.9265202592
  H         3.9123195917       10.6137604948       31.4920969135
  C         5.3906058375        9.6407425420       30.3191405523
  H        -5.5063959472        9.1013059514       25.1600886228
  H        -4.5723869576       10.4699263136       25.3899731015
  C        -6.3281957749       10.5352790783       26.7162331220
  S        -1.5454744522       18.1477047702       31.7024562408
  N        -1.8737311319       17.7061031316       33.2033393714
  C        -2.0662248003       15.5119618619       34.4113186504
  H        -1.8723230827       13.4255045181       35.1093501636
  C         4.0109904427        8.6615679493       12.7628804692
  N         3.9090776591        7.2983236552       12.6363474686
  O         3.1917356211        5.5827037168       13.9833547190
  H         6.2686143302       10.2201256158       30.5736429413
  H         5.4681615329        9.2269799369       29.2868645176
  C         5.3899960119        8.3927745660       31.2313626379
  H        -6.8006580849        9.7858268412       27.4482413909
  H        -5.7495297069       11.3751426749       27.2195542154
  C        -7.2551266133       11.0868522897       25.6573457316
  C        -2.3667322649       16.1595727309       35.6725916981
  S         4.3443307993        9.6156215309       11.3252109282
  C         3.9983167500        6.5699130326       11.3772224158
  H         5.8555625697        8.6473532883       32.2134145291
  H         4.4335167385        8.0591849184       31.4305806589
  C         6.0540400341        7.1203841102       30.6338706383
  H        -6.7750701445       11.1064195503       24.7006647198
  H        -7.4817121007       12.0643943950       25.9817666062
  C        -8.5608510486       10.2573099166       25.4800127653
  H        -2.0545200723       17.2367613454       35.6416073255
  C        -2.9253295150       15.7717311024       36.8538524390
  H         4.7491507060        6.9858004901       10.7371255633
  H         4.3461705000        5.5904271055       11.5972809240
  C         2.5446792206        6.4904283567       10.8005191629
  H         7.1355761748        7.3010005499       30.6869077642
  H         5.7434958573        6.9413563481       29.6071436212
  C         5.8187654977        5.9746238921       31.5295890390
  H        -9.0195073278       10.4044432495       24.4819447279
  H        -8.3725788269        9.2642835889       25.7252304309
  C        -9.5886670456       10.5986842981       26.5468651340
  S        -3.5018352179       14.1937157248       37.2500460511
  C        -3.1505762827       16.8017113028       37.9173963906
  H         2.4266048445        5.5222091575       10.3583419111
  H         1.7309608372        6.4967392651       11.5383504158
  H         2.4115662818        7.1458058979        9.9429322695
  H         6.4342986206        5.1182590500       31.1378806342
  H         4.7859645998        5.6912105056       31.4533864992
  H         6.0496636227        6.1944983157       32.5910977120
  H        -9.2985466635        9.9290140713       27.3707959837
  H       -10.5949477445       10.3305252936       26.1679648842
  H        -9.5240367403       11.6061221859       26.7621387275
  C        -3.9760086291       14.8707336367       38.8091501214
  N        -3.7164518438       16.1721237783       38.9768232908
  O        -2.8107390531       18.0045645212       37.8882028799
  S        -4.4997724284       14.0053551660       40.2754066699
  C        -3.9947724239       16.9901201955       40.1272096208
  H        -4.1549745975       18.0349917519       39.8781318797
  H        -4.9088059818       16.6821948997       40.6006724924
  C        -2.8150337924       16.8881186411       41.0965525007
  H        -3.1018163494       17.3961151358       41.9765527624
  H        -2.3914738261       15.9011575239       41.3331949918
  H        -1.9969465657       17.4137505328       40.7187796631
