352
 i =    83600, time =    83600.000, E =        24.8280713698
  H        10.4925882707        7.8181366837       31.4265662557
  C        11.4733649676        7.2879996021       31.5271373689
  H        12.1240434424        8.1308844644       31.6451192935
  C        11.9498024441        6.4765047059       30.3764577607
  C        11.4963236451        6.4609207204       32.8635222886
  C        11.0612391717        5.2955652584       29.9400775181
  H        12.3027801099        7.0640722981       29.5497581202
  H        12.8459107951        5.9014938949       30.6892110279
  H        12.3362002758        6.6097946460       33.5596298457
  H        10.6925890022        6.8309310443       33.4960448095
  H        11.2560966677        5.4612395893       32.6253667118
  C        10.0308340369        5.8240416545       29.0092959121
  H        10.4536543592        4.8492181384       30.7509017849
  H        11.6489471046        4.5654706133       29.3916375512
  C        10.5364867540        5.9828858534       27.5659675175
  H         9.1165365914        5.2072218323       29.0945904090
  H         9.8158651235        6.7543203396       29.4802329618
  C         9.7102140039        5.2934266535       26.5620440653
  H        11.4716526497        5.5159084685       27.4401719999
  H        10.7789471432        7.0339689339       27.3340169159
  C         8.3723509259        5.9543804159       26.3192205900
  H        10.2542703492        5.1676177791       25.6859411867
  H         9.6272168444        4.3544896232       26.9428414636
  C         7.3591125211        4.9538038384       25.5470735496
  H         7.8704831234        6.3302583364       27.1864961080
  H         8.6006046099        6.8448143704       25.7578321370
  C         7.0666029197        3.5657391812       26.2215411303
  C         7.9017386567        4.2367756972       24.3091688863
  C         6.0738272971        5.5416375956       25.0705076511
  C         7.3672149513        2.4810517842       25.3628700046
  C         6.6143761272        3.1200659441       27.4736019011
  C         7.8760732188        2.9105920488       24.1531134643
  C         8.3777245048        4.9795606021       23.2003779907
  H         5.6621593279        4.9561954845       24.2315801493
  H         6.3123249007        6.5956529367       24.7380152874
  C         5.0309854075        5.7022322678       26.2487863268
  S         7.1534206774        0.9079267023       26.0557262604
  C         6.6046698122        1.7310161761       27.5207733921
  H         6.3041180977        3.8622099124       28.1493651574
  C         8.2883947118        2.3885091551       22.9870544236
  H         8.3354511725        5.9787399421       23.3929043804
  C         8.6806404714        4.4187968539       21.9910370879
  H         4.8889178906        4.7572038909       26.6949395980
  H         5.5279012878        6.3738640465       26.9747892853
  C         3.5767077078        6.1945091184       25.7891259106
  C         6.1401334803        0.9693485283       28.6959915863
  C         8.7324015252        3.0983117514       21.8759740657
  H         8.3808091899        1.2679930350       22.9191933228
  C         9.0885878964        4.8924720860       20.7921867912
  H         3.0143788291        5.5591962375       25.0946346551
  H         3.6338939844        7.1828837620       25.4203677418
  C         2.7490905026        6.3629763105       27.0552225987
  C         6.2914780543       -0.3935873215       28.9876371942
  C         5.5783931248        1.7904520854       29.7525090183
  C         9.1735431405        2.4633956332       20.6446299386
  C         9.3297968140        3.8271692343       19.9648362290
  S         9.4676172547        6.4189407121       20.0576774789
  H         1.9848781759        7.1801998905       27.0718662341
  H         3.3125328062        6.7072461468       27.8118157707
  C         2.1673579682        5.0524256894       27.4746694348
  N         6.7318607190       -1.3858948373       28.0991808457
  C         5.9598527545       -0.9129064822       30.1861835715
  C         5.3415996460        1.3152147990       31.0086983273
  H         5.4556190653        2.8508689442       29.6082432558
  C         8.0411311858        1.7969646480       19.9157233562
  C        10.4731988560        1.6081099938       20.6126762372
  C         9.7479114662        4.2720800781       18.6698727976
  C         9.8201326645        5.6266679349       18.5403148700
  H         1.7353259017        4.6364553319       26.5884308092
  H         3.0608214418        4.4484429786       27.7262531263
  C         1.2256776027        5.1548385296       28.6759075636
  S         6.4704672521       -2.8327091085       28.6834057518
  N         6.0404286355       -2.3140319404       30.1920526853
  C         5.5613141532       -0.0929141565       31.2964015733
  H         5.0271357974        2.0423094696       31.7430525644
  H         7.6842217183        0.9924839704       20.6401589135
  H         8.4772179272        1.2243006644       19.0946217012
  C         6.8201940611        2.6939432853       19.6062880988
  H        10.8175393705        1.3616561349       19.6007898596
  H        10.2541943153        0.6448863877       21.1422413158
  C        11.7075373364        2.3383636178       21.1529930636
  H         9.9534138670        3.5396331116       17.8794912301
  C        10.1958782091        6.4383159019       17.2929671965
  H         0.6702977039        4.2299644468       28.7849686136
  H         0.4881857090        5.9061637674       28.5882031756
  C         1.8388850030        5.5708363697       30.0472424106
  C         5.4293899322       -0.6508168525       32.5903523510
  H         6.9856206100        3.2116559158       18.6370933113
  H         6.6275960713        3.4674915454       20.3383091161
  C         5.4491831703        1.9038791161       19.4873101525
  H        11.4619636883        3.1039214932       21.9119238931
  H        12.0978204029        2.9376519908       20.2552087102
  C        12.8317559089        1.3737279125       21.6446964157
  C        10.2196331549        7.8327700698       17.2159081125
  C        10.5673241089        5.6490254385       16.1038723508
  H         1.7668541068        6.6072617446       30.1390625757
  H         1.3172711428        5.1850791065       30.8584599371
  C         3.2367221530        5.0672375047       30.2458946549
  H         5.5903012908       -1.6990619591       32.5644909823
  C         5.2175139251       -0.1928324565       33.8326317184
  H         4.6886722772        2.7220777316       19.5145988124
  H         5.2532424567        1.2074689580       20.3135360413
  C         5.2392675091        1.2828781191       18.1444728525
  H        12.5472773573        0.7497899649       22.4848658989
  H        13.0894041304        0.7331372985       20.7769181311
  C        14.0594948494        2.3191091855       22.0212093529
  N         9.9054841972        8.7233564429       18.2051757829
  C        10.4783715366        8.4733210273       15.9912933797
  C        10.8127476131        6.2811021367       14.8630530882
  H        10.5707020054        4.5343463937       16.0836116002
  H         3.9383116203        5.7531255678       29.7438107884
  H         3.6267480338        4.9646965470       31.1630109065
  H         3.3768200373        4.0713898910       29.8966559571
  S         4.7239818221        1.4400307129       34.3109061199
  C         5.3195244903       -1.1678821968       34.9711124582
  H         5.3040815296        2.1180397842       17.3942788211
  H         6.0950517698        0.7246442809       17.9087889458
  C         4.0448123670        0.4453220461       17.7956086261
  H        13.7670599223        3.0530722417       22.7749989181
  H        14.4479612764        2.9106439818       21.1272434296
  C        15.2343984055        1.5376993769       22.5332978708
  S         9.8187682822       10.1911458666       17.6416837634
  N        10.1891852878        9.8316642781       16.0617554881
  C        10.8070256881        7.7800440420       14.8254583773
  H        11.2810077113        5.6950730226       14.1009745412
  C         4.5079204775        0.7436231888       35.9059711492
  N         4.9523289072       -0.5396643278       36.1055276005
  O         5.6429432789       -2.3484386610       34.9317828262
  H         4.0292266333        0.1894296672       16.7160431188
  H         3.2136573265        1.2065124089       17.9891060381
  C         3.7137290331       -0.7341234876       18.7679244822
  H        14.9730595109        0.9106577553       23.3582621142
  H        15.5406436469        0.8261682119       21.8247833807
  C        16.3039624331        2.5357014650       22.8933984875
  C        11.2446146032        8.6360353896       13.7584308528
  S         3.9664494400        1.7106209145       37.2604214713
  C         5.1033761221       -1.2488390239       37.3946856468
  H         4.5098446813       -1.3725304374       18.8769829594
  H         3.4402480980       -0.3059132358       19.6976528903
  C         2.4869790168       -1.5644564219       18.3028801488
  H        16.2434269886        2.7687061376       23.9494295946
  H        16.0072231303        3.4969659175       22.4588987504
  C        17.7188833015        2.0268455713       22.6894951547
  H        11.0057615336        9.6050293673       13.8597569290
  C        11.6565432833        8.2340782019       12.5014901616
  H         4.3513643265       -0.9383767596       38.1543307879
  H         5.0168939780       -2.3429977194       37.2343951431
  C         6.5680967784       -1.1284562982       37.9823324179
  H         1.6309774309       -0.9463772075       18.3754505376
  H         2.2846486474       -2.4385574101       18.9186213193
  C         2.6304271432       -2.2079016490       16.9380446779
  H        18.2205710342        1.9861042067       23.7008149603
  H        17.7091092523        1.0315124258       22.3627513264
  C        18.5457252056        2.8659775831       21.7593844196
  S        12.0013749143        6.6220295013       11.9207810434
  C        11.7162681631        9.2524736943       11.4032972612
  H         7.0120951313       -0.1823539607       37.6502221670
  H         6.6006620945       -1.2742225143       39.1294408948
  H         7.0166196407       -1.9778008801       37.5531452874
  H         2.5807983457       -1.3801314995       16.2780447446
  H         1.9083218597       -3.0528414633       16.7559995257
  H         3.6156760569       -2.5835724953       16.7709703264
  H        17.8800377235        3.2582666202       21.0485107367
  H        19.2787978396        2.2516753997       21.3489913283
  H        19.1177509499        3.5978996327       22.3170069372
  C        12.4192369004        7.3455229838       10.4183839300
  N        12.3006691276        8.6742055456       10.3425099332
  O        11.5233297879       10.4343662106       11.6125434916
  S        13.0804485243        6.4750859056        8.9871688681
  C        12.5805630371        9.4004680710        9.1356311574
  H        12.8356734669       10.3986632089        9.2229793295
  H        13.3712248438        8.9690063844        8.5316102836
  C        11.4264888558        9.3179357828        8.1474854231
  H        10.4407439498        9.3809734141        8.7151341891
  H        11.4733268006       10.1565116366        7.4618863621
  H        11.5576193898        8.3218987131        7.6443507060
  H        -2.8549411580       14.3081979441       16.3417457306
  C        -2.4744010958       13.3354252035       16.4222600637
  H        -3.4654852980       12.9098989646       16.6030435625
  C        -1.5651664994       13.0331635754       17.7304074581
  C        -1.8827852557       12.9638549721       15.0827064118
  C        -2.1291355373       13.6121539657       19.0714336484
  H        -1.3672629410       11.9761357768       17.7619160082
  H        -0.5757274166       13.4815787554       17.5479751294
  H        -1.0767479206       13.7172574262       14.8923686133
  H        -1.6285189551       11.9056892508       15.1554339934
  H        -2.6104643948       13.0359480421       14.2890173443
  C        -1.8175660397       12.5921489947       20.1543348266
  H        -3.1641186828       13.8961539660       19.0687218870
  H        -1.5059334938       14.5026951317       19.2344488269
  C        -2.1550262356       13.1973417961       21.4802855941
  H        -2.4185487520       11.6790468075       19.9385389281
  H        -0.7559160895       12.3887296377       20.1246509600
  C        -1.1474066327       12.6103374092       22.4771711970
  H        -3.1530634003       12.8899157425       21.8203481235
  H        -2.2594469264       14.2978351203       21.3440751116
  C         0.0800102472       13.4991959264       22.5766508377
  H        -1.5746678253       12.5690283063       23.4714505749
  H        -0.8815824796       11.6026730420       22.2978468546
  C         1.1381317966       12.9562881744       23.4667464872
  H         0.4059886000       13.8649741580       21.5823908593
  H        -0.2204799052       14.4224331085       23.0968162630
  C         1.5002327676       11.6434876638       22.7861073645
  C         0.7274126915       12.2448470424       24.7503704221
  C         2.3201969910       13.9541468357       23.7594381970
  C         1.2738666271       10.5433807847       23.6250603199
  C         1.9409139523       11.2970754952       21.5278652123
  C         0.7879606664       10.8943134574       24.8511565217
  C         0.2476059514       12.9528872088       25.8327720268
  H         2.4732661191       14.5876861923       22.8298818885
  H         1.9778884747       14.7549793774       24.4887842873
  C         3.6636977060       13.3576903571       24.2027603621
  S         1.6291980795        9.0891308974       22.8367218302
  C         2.0572477051        9.9619991375       21.3728659635
  H         2.0884893009       12.1194933465       20.8436773230
  C         0.3385484653       10.2807534253       25.9747540711
  H         0.1950430474       14.0496398095       25.7678554668
  C        -0.0558413730       12.3317575321       27.0001901377
  H         4.0741320350       12.6541939584       23.4009819230
  H         3.4266165594       12.7647728857       24.9901523479
  C         4.7979348396       14.3266825433       24.5273423391
  C         2.4286150164        9.2824201312       20.0785985541
  C        -0.0474005165       10.9785247536       27.1315888364
  H         0.3378693754        9.2093919186       26.1842250699
  C        -0.4986792140       12.7598216582       28.2156362857
  H         5.5054622959       13.8778641466       25.2948309331
  H         4.2628878486       15.1314658864       24.9818977661
  C         5.6434144113       14.7287017321       23.3108026575
  C         2.6029530083        7.8965642686       19.8414374156
  C         2.9392601904       10.0828214320       18.9632888444
  C        -0.4729021633       10.2881423824       28.3213223176
  C        -0.7513813133       11.6661323518       29.0115244625
  S        -0.6423064397       14.2651430784       29.0527857941
  H         6.1293392558       15.6344614563       23.5212848767
  H         5.0321767842       15.0008094306       22.4914330878
  C         6.7125432505       13.6562594081       23.0010418032
  N         2.4544333427        6.8833250656       20.7785619975
  C         2.9807246746        7.3401290164       18.6026788677
  C         3.3545491405        9.5807169943       17.7403527309
  H         3.1110390551       11.1430758513       19.1306671257
  C         0.5888981632        9.4768944275       29.0477484970
  C        -1.8613085816        9.4970545969       28.1353201756
  C        -1.1588501622       12.0577544827       30.2943612406
  C        -1.0465558314       13.3888494408       30.4916995723
  H         7.2568209306       13.5573771707       23.9410229042
  H         6.3913169393       12.6545914909       22.7967208227
  C         7.5829884861       13.9440412508       21.7866534822
  S         2.4943443049        5.3859885957       20.0624338852
  N         2.8600006809        5.9484780550       18.5574479575
  C         3.3116216646        8.1234182026       17.4243041711
  H         3.6860423760       10.2706573781       17.0298746429
  H         0.9857704456        8.7483014772       28.3197788865
  H         0.0872230733        8.9479346147       29.8648704917
  C         1.7911218166       10.2543986137       29.6274152803
  H        -1.7131573433        8.8189867979       27.2677481257
  H        -2.0203034031        8.8440187801       28.9906586638
  C        -3.0634333548       10.2705538602       27.7020004355
  H        -1.4420085118       11.3205091941       31.0700697951
  C        -1.2838468441       14.0617454287       31.8240412905
  H         8.5759468569       13.4969353085       21.9620613111
  H         7.8011850869       15.0360175653       21.8310945922
  C         6.9528790186       13.4805222537       20.4622402980
  C         3.6717469933        7.5248323543       16.2245094182
  H         2.1052568723       11.1097968868       28.9942312732
  H         1.5417061695       10.8524431883       30.5564834368
  C         2.9384301457        9.3635536832       30.0689838497
  H        -2.9729063998       10.7837008164       26.6736009986
  H        -3.2044296402       10.9321198520       28.5152521208
  C        -4.2927508372        9.3486883155       27.4514630918
  C        -1.4313627144       15.4444110074       32.0214924267
  C        -1.4806135898       13.2153628594       32.9969484758
  H         6.1089464788       12.7328165712       20.5313993110
  H         6.4833274151       14.3995968965       20.1505631611
  C         7.9763007023       13.2373881248       19.3728209943
  H         3.6796647162        6.4560913837       16.2673332909
  C         4.0156109776        7.9873786014       14.9282793773
  H         3.3383469628        8.8167995931       29.1950275618
  H         2.5922165285        8.5815901251       30.7826589251
  C         4.0938104354       10.1640092632       30.6527804459
  H        -3.9121593928        8.5974387099       26.7300103502
  H        -4.5711389807        8.7492083996       28.3171357492
  C        -5.5278101197       10.0319473273       26.8923963924
  N        -1.3757565968       16.4178089071       31.0188071521
  C        -1.7565632645       15.9436092933       33.2664149178
  C        -1.6535355897       13.7490383620       34.2446938070
  H        -1.3882024962       12.1573033320       32.9622674753
  H         8.7373771693       14.0298452955       19.1534735803
  H         8.5287864142       12.2847678076       19.5920478661
  H         7.4516028030       13.2422504924       18.4117784126
  S         4.2628943003        9.5884949672       14.4282623186
  C         4.2783062535        7.0147251578       13.8610370550
  H         4.3518046999       10.8864722146       29.9624621127
  H         3.6686110570       10.6350559036       31.5033761809
  C         5.3101992102        9.3407258104       31.0517024521
  H        -5.5180514623       11.1026117599       27.1428656899
  H        -6.3676238162        9.5425710140       27.4606256370
  C        -5.7149273725        9.8666085184       25.3558307404
  S        -1.4379409483       17.8774034637       31.6785532876
  N        -1.7699780755       17.3479754264       33.1722010412
  C        -1.8809046457       15.2034544930       34.4299306113
  H        -1.6875348641       13.0997290751       35.0970174597
  C         4.6010134623        9.0110948772       12.8099085045
  N         4.6474235907        7.6344155590       12.7508167106
  O         4.2914931191        5.7945482381       14.0885947017
  H         4.9720033726        8.5971773499       31.7630536415
  H         6.0112501192       10.0089641122       31.5688659706
  C         6.1997384498        8.5914207964       29.9813231444
  H        -4.8720547754       10.1765486181       24.7985195448
  H        -5.8144640190        8.7964827095       25.0798683708
  C        -6.7638747460       10.7321814693       24.6298817478
  C        -2.2356596458       15.9574990362       35.6280498269
  S         5.1155495114        9.9961414902       11.4337986745
  C         4.8778838681        6.8097781390       11.4975753943
  H         5.6046350427        8.6027590844       29.0362137208
  H         7.0909577672        9.1394446118       29.7662007517
  C         6.5263831682        7.1189598159       30.4273056305
  H        -6.2486286334       11.1708810890       23.7855394917
  H        -7.0324220192       11.5497169901       25.3552091174
  C        -8.0231626671        9.9895455814       24.3057641698
  H        -2.2337254700       17.0470238130       35.4922328479
  C        -2.7858486220       15.5370495182       36.8193229172
  H         5.6324153990        7.3805810266       11.0116304186
  H         5.2558972029        5.8440794044       11.5999446962
  C         3.6562421084        6.8393572091       10.6098932122
  H         6.9264151153        6.5361005571       29.6557120627
  H         5.5653722265        6.6357548506       30.8277090146
  C         7.4451764344        6.9586367548       31.6211676382
  H        -8.5812290860       10.5835697121       23.6037140600
  H        -7.8752803837        9.0566736393       23.8448471227
  C        -8.9281971508        9.9075137854       25.5272084223
  S        -3.2547985258       13.9511933390       37.2392060103
  C        -2.9033948732       16.5550699507       37.9001313979
  H         2.7697775088        7.1586513959       11.1873387420
  H         3.7754787805        7.5828360526        9.7921528084
  H         3.4828363668        5.8289833717       10.2519314600
  H         6.9042638234        7.0299505712       32.5504679127
  H         8.2599195307        7.6260414350       31.6288836006
  H         8.0201565979        6.0304611926       31.5064729852
  H        -8.4111833189        9.4349013897       26.3245141506
  H        -9.8053755378        9.3176778965       25.3451626511
  H        -9.3094323772       10.8529186815       25.6519356351
  C        -3.7579819475       14.6702439549       38.8494418779
  N        -3.4934207909       15.9936844643       38.9624990281
  O        -2.4774699110       17.7197492096       37.8393525996
  S        -4.2801126200       13.7324534797       40.2600246055
  C        -3.5577293014       16.7359757433       40.2556063269
  H        -3.7808171570       17.7780843903       39.9311371292
  H        -4.3666903234       16.3226686943       40.8752169719
  C        -2.1983555830       16.7650615663       40.9860260959
  H        -1.6069757154       15.8696496055       40.8709907170
  H        -1.5766692943       17.6470405521       40.7381661271
  H        -2.3885012873       16.7234615230       42.0817261152
