352
 i =    58800, time =    58800.000, E =        24.7439063358
  H        10.3571875448        4.9237426999       31.2810058129
  C        10.4451314250        6.0005889979       31.2558084126
  H         9.5777624937        6.4155371235       30.8515018799
  C        11.7923139095        6.2540093202       30.5875226155
  C        10.5923333712        6.4085745627       32.7176663533
  C        11.9551682146        5.5707293797       29.1932699401
  H        11.9834288564        7.2922563815       30.5399347229
  H        12.5617092915        5.8501522105       31.2691600011
  H         9.5890144027        6.6053460444       33.1714352172
  H        10.9407795181        5.4919725465       33.2706726017
  H        11.0943209566        7.3122856798       32.9565110026
  C        10.6574748280        5.2721246166       28.4285043981
  H        12.5699750862        4.6772365782       29.4882655420
  H        12.5968701998        6.2477866288       28.6446913441
  C        10.8837052222        5.4274579901       26.8629920074
  H        10.3549496596        4.2377833050       28.6896798598
  H         9.8242115093        5.9230962407       28.6370319599
  C         9.9051171830        4.5799312021       25.9413456562
  H        11.8874006170        4.8930692004       26.8935279972
  H        11.0210198779        6.4835826453       26.6104989471
  C         8.6428072132        5.3722134995       25.6575802895
  H        10.3461603131        4.2709459160       25.0012740686
  H         9.6223285989        3.6707998747       26.3656730182
  C         7.4887497720        4.4937064956       25.0688344386
  H         8.3547813571        5.9094876237       26.5578874232
  H         8.9224644423        6.0516608037       24.8736511859
  C         7.1486822693        3.1544622223       25.7761126803
  C         7.8853386580        3.7219002603       23.8278624312
  C         6.2823355733        5.4359107820       24.7687834289
  C         7.3211620172        2.0364071149       24.9901139164
  C         6.6690460113        2.8494710843       27.0783931636
  C         7.8587206045        2.4105178328       23.7813698079
  C         8.3236144986        4.4402284124       22.7594380900
  H         5.5721672516        4.8551816821       24.2078870752
  H         6.5337311165        6.2330925505       24.0249094980
  C         5.3927106619        5.9532301742       25.8449315589
  S         6.8585370818        0.5824502601       25.8474907501
  C         6.5334587304        1.5047772193       27.3243819460
  H         6.4346640785        3.5616567186       27.7785840695
  C         8.1944941986        1.8606688881       22.5697521124
  H         8.3030346794        5.4830682791       22.8724732063
  C         8.6587785195        3.8601258607       21.5621413201
  H         5.5011611753        5.2721472598       26.6427033483
  H         5.8119165234        6.9132791131       26.3537991252
  C         3.8964478238        6.0254649196       25.5921162597
  C         6.0317198168        0.9706664351       28.5898381142
  C         8.6102765190        2.5288427405       21.4263274094
  H         7.9990690233        0.8054531528       22.6100377844
  C         9.1522771774        4.2498876804       20.3613943296
  H         3.5764218442        5.0825647731       25.1374960262
  H         3.6089711051        6.8370708185       24.8735461548
  C         3.0175280790        6.1839871200       26.8584633236
  C         5.9678389872       -0.3886714586       28.9199078276
  C         5.4861409613        1.9041465007       29.6235706288
  C         8.8592357740        1.8247537975       20.0852014965
  C         9.1841083869        3.2170613974       19.4368300496
  S         9.6880002351        5.7566974593       19.6961259442
  H         2.0848071632        6.6663524879       26.6050643579
  H         3.5392210563        6.8403563501       27.5304656426
  C         2.6788931156        4.8534858137       27.4891104663
  N         6.3976182282       -1.3816013458       28.0727716847
  C         5.6540701412       -0.8487794120       30.2054390294
  C         5.2494638779        1.3964012146       30.8994482022
  H         5.2644778590        2.9429251732       29.4699792716
  C         7.6606097156        1.0562948445       19.5264515366
  C        10.2119777590        0.9831834468       20.0362352814
  C         9.4164584858        3.6433983875       18.1396815116
  C         9.6673700799        5.0148411393       18.1538691395
  H         2.0331863826        4.3830579149       26.7176351545
  H         3.5714602265        4.2475541431       27.6022783729
  C         1.8688312436        5.0084615721       28.7779471709
  S         6.4802491728       -2.7704226660       28.9049781435
  N         5.8386159121       -2.2398689307       30.3348147103
  C         5.2543262698       -0.0476322301       31.2834507587
  H         4.8318463711        2.1148344157       31.6301993918
  H         7.3228675234        0.3097285016       20.2725963861
  H         7.9826110386        0.5503312360       18.5691047913
  C         6.5560580900        1.8897183061       19.0155983874
  H        10.4746814729        0.7992193499       19.0506942603
  H        10.1164079331       -0.0098078399       20.3981747129
  C        11.4249905758        1.6922477663       20.6553749858
  H         9.5107400056        2.9768021343       17.2858718948
  C         9.9599717788        5.7772475015       16.8757259776
  H         1.2741633223        4.1079775628       29.0463723109
  H         1.1692423589        5.8470288424       28.6496611911
  C         2.6761778281        5.4374287201       29.9350606689
  C         4.9231274131       -0.5582462299       32.4884909826
  H         6.7842278248        2.3066106718       18.0401249309
  H         6.3212909012        2.7305833495       19.6945246381
  C         5.3190576280        1.0274901641       18.6574519951
  H        11.2574869385        1.7340017839       21.7665072861
  H        11.5906447003        2.6907027163       20.2483768219
  C        12.6967724098        0.9011496952       20.6829131741
  C        10.0283971127        7.2033346973       16.8591206743
  C        10.3393769820        5.1034398723       15.5838530868
  H         3.3311507783        4.5591172104       30.1367028375
  H         3.3101962654        6.2582906566       29.5699122463
  C         2.0318950845        5.8544762353       31.1806641278
  H         4.8348480094       -1.5901609036       32.4463643187
  C         4.7504300195       -0.0223573486       33.7478385426
  H         4.8653012921        0.5216807356       19.5605815952
  H         5.5942580251        0.1498389536       17.9579537264
  C         4.2526185419        1.9350212350       17.9668749302
  H        12.5590064168        0.0285766305       21.3626390864
  H        12.7559863477        0.2957165957       19.7270120017
  C        13.9149598950        1.7354748232       21.0525413788
  N         9.7693539717        8.1308807756       17.9657022859
  C        10.1725627365        7.9085556043       15.6522967650
  C        10.4957414570        5.8339897956       14.3973835845
  H        10.2492891247        3.9842054673       15.5193127246
  H         1.4347566961        5.1037385215       31.7109068106
  H         2.7024535322        6.1839845927       31.9688386523
  H         1.3017968516        6.5760619203       30.8869226109
  S         4.5094744261        1.6688452295       34.2258539435
  C         4.4358561611       -0.9858996490       34.8216165354
  H         4.0930288839        2.8048336424       18.6630298303
  H         4.5629259065        2.2211153150       16.9720866901
  C         2.9001248411        1.1610601350       17.9394524344
  H        14.0827980116        2.4320825986       20.2279699123
  H        14.7940691141        1.1549179059       21.3282860504
  C        13.7578012760        2.4415272577       22.4046644066
  S         9.7171772672        9.6597562692       17.4130119889
  N        10.0988984216        9.2937693227       15.8482900920
  C        10.4536727201        7.3263144768       14.3911906816
  H        10.6900639150        5.3734784882       13.4872816520
  C         4.1304536511        1.0371712392       35.8456354266
  N         4.1528128544       -0.3105794800       35.9675085778
  O         4.5313053003       -2.2440665791       34.6856200640
  H         2.0398969666        1.8960858969       17.8836322550
  H         2.8879773664        0.7885093058       18.9365802535
  C         2.8780450131       -0.0107726504       17.0338340743
  H        12.9097882825        3.0702553222       22.4303788808
  H        13.4148760465        1.7989891990       23.2088157286
  C        14.9285908929        3.1992309277       22.9448913653
  C        10.7694009684        8.1941438209       13.2758006597
  S         3.6730581357        1.9525465396       37.2440061175
  C         3.9362158200       -0.9647178544       37.2862086131
  H         2.6060394268        0.3463367645       16.0147322060
  H         3.8637434963       -0.5612466284       16.8621577148
  C         1.9193143530       -1.1008190114       17.4855017940
  H        14.5747496611        3.8538576216       23.7437933602
  H        15.2760322411        3.8961389157       22.1454237333
  C        16.0955800577        2.3102951338       23.3506723084
  H        10.4586461721        9.2067361430       13.3786945451
  C        11.4420616711        7.9397635098       12.1564203089
  H         3.3071521751       -0.5304878796       38.0708634234
  H         3.5595887910       -1.9792241655       37.0858329666
  C         5.3545293359       -1.1512149718       37.9400100777
  H         1.8321218777       -1.8644764260       16.6904518469
  H         0.8994687207       -0.7239551724       17.5643560775
  C         2.1741624212       -1.7570199590       18.7935801367
  H        16.7180879283        2.7564145018       24.1811410967
  H        15.7704381126        1.4522758189       23.9020166796
  C        17.1470537777        2.2227053317       22.1553544992
  S        12.2036390264        6.4482437067       11.6597214286
  C        11.4028241402        9.0046863151       11.1327222715
  H         5.2706100696       -2.0066993593       38.6218393545
  H         6.1528702638       -1.3064324609       37.2467929551
  H         5.5441418924       -0.2547118233       38.5515278710
  H         1.5325682510       -1.4879518091       19.6115343652
  H         3.2460343856       -1.5822580973       19.1053492476
  H         2.0980883397       -2.8158153888       18.7344805768
  H        16.7523935753        1.6907099725       21.2745604389
  H        18.0474250796        1.6112019223       22.4407220079
  H        17.3828068935        3.2178628565       21.7786219521
  C        12.4561701333        7.3073462454       10.0896874914
  N        12.0938411730        8.5864597189       10.0389002097
  O        10.9665714356       10.1640232367       11.2330131496
  S        13.0151654740        6.5082017965        8.6249405139
  C        12.0320231565        9.3811251815        8.8703430618
  H        12.5070865510       10.3380348361        9.1551610048
  H        12.7142381456        9.0518668376        8.1746981945
  C        10.7063738914        9.4484837062        8.1012806836
  H        10.5747057579       10.4076263582        7.6760830506
  H        10.6929564476        8.7294961255        7.2237611589
  H         9.9238086759        9.1894676512        8.7435211765
  H        -4.1245877008       13.7924446318       16.6105806392
  C        -3.0843230409       13.4324118412       16.3083410556
  H        -3.1883944328       12.3905241784       15.9316617237
  C        -2.1229991356       13.4264663209       17.5395076580
  C        -2.7389016680       14.3499868895       15.1336539656
  C        -2.8997139147       13.0934983566       18.8132041626
  H        -1.2831740996       12.6810564546       17.4383526890
  H        -1.5704965764       14.4167944977       17.5796697216
  H        -3.0090603882       15.4154444926       15.2704285827
  H        -1.6433452277       14.3024243341       15.0863305594
  H        -3.0996241025       14.0006650784       14.1997237376
  C        -2.0431712227       12.5052067159       19.8932242556
  H        -3.6381983597       12.3716272679       18.5604184026
  H        -3.3477029111       13.9289042511       19.2618878818
  C        -2.4950320104       12.6735764399       21.3164591991
  H        -2.1837472567       11.3856759186       19.7412343457
  H        -0.9650510653       12.8238036315       19.8003010807
  C        -1.4815090742       12.2609851726       22.3583779950
  H        -3.3872013808       12.1348634032       21.5111475495
  H        -2.6448910661       13.7020335826       21.5902302705
  C        -0.3101727781       13.2082067109       22.5496313928
  H        -1.9454809590       11.8438554047       23.2524300538
  H        -1.1252914321       11.2925763063       22.0126990482
  C         0.8805843840       12.6174021513       23.3630610313
  H        -0.0572720269       13.6811166374       21.6339533590
  H        -0.6366270511       14.0534676613       23.1028669321
  C         1.2687350087       11.2544787858       22.7146359829
  C         0.6903347995       11.8628949698       24.6586740600
  C         2.1666923699       13.5403631126       23.4870313176
  C         1.1796263167       10.1784055753       23.6166424511
  C         1.8512725662       10.8549570501       21.4513046471
  C         0.8095982102       10.5690225165       24.8615469404
  C         0.2775104415       12.6142193444       25.8152307476
  H         2.3346515742       13.8700525803       22.4425329865
  H         1.8803914130       14.3569389646       24.0921944837
  C         3.5003104432       12.8287191643       24.0324959818
  S         1.6096898075        8.7691582557       22.8376489908
  C         1.9836562500        9.4945949030       21.3256002426
  H         2.1019240170       11.6548035818       20.7568909689
  C         0.5937883638       10.0534725184       26.0961026019
  H         0.2991110251       13.6812422138       25.7565408816
  C        -0.0691688090       12.0556114810       27.0408204298
  H         3.6741967915       11.9062829232       23.5001721822
  H         3.3520656133       12.4463655513       24.9944116757
  C         4.6568148017       13.7969956186       23.9229689758
  C         2.5609646003        8.8613296923       20.0803214708
  C         0.1586395761       10.7413342584       27.2342172883
  H         0.8639064665        9.0294384701       26.2304225188
  C        -0.5413894058       12.4608072068       28.2886319589
  H         5.4794645973       13.5526900002       24.6083469626
  H         4.3231441757       14.7557152157       24.4412922120
  C         5.2144560539       13.9561168323       22.5249515382
  C         2.5201734228        7.4680144046       19.7815750175
  C         3.1186649315        9.7158026855       19.0181702774
  C        -0.2294131785       10.0235840331       28.4415561489
  C        -0.6424711507       11.3360159189       29.1402191786
  S        -1.0095405497       13.9403863378       29.0741930270
  H         5.6474747293       14.9839195922       22.5352595060
  H         4.5110390924       14.0859473503       21.6908514528
  C         6.2301080186       12.9239072202       22.2713026704
  N         2.2672467594        6.4097447135       20.7144901978
  C         2.7679184213        7.0189989049       18.4822229827
  C         3.4065858145        9.2388599792       17.7456817676
  H         3.0847772104       10.8174370913       19.0819645044
  C         0.9460289797        9.3379452104       29.1263174382
  C        -1.5533888457        9.0733017742       28.2340004955
  C        -1.0551379831       11.6904747569       30.4238745922
  C        -1.2182165356       13.0542665460       30.5666170077
  H         6.9149205016       12.7630534164       23.1086475702
  H         5.7758565322       11.9729451377       22.3423796316
  C         7.0803341029       13.0073093704       21.0522678652
  S         2.2578399750        5.0388675771       19.9218984277
  N         2.7583461690        5.6208123418       18.4253408292
  C         3.1789443858        7.8506258379       17.3759379320
  H         3.7807963793        9.9205770278       17.0168066102
  H         1.2337261371        8.4775804639       28.4642212911
  H         0.5668433618        8.8655012242       30.0477548939
  C         2.2250653043       10.2355486813       29.4536858422
  H        -1.4268243931        8.1545989543       27.6345708778
  H        -1.8660352155        8.7335709071       29.1798923901
  C        -2.6896932476        9.8705823033       27.5819569235
  H        -0.9817961703       10.9526500187       31.2355377539
  C        -1.5940285060       13.8147683586       31.8063195411
  H         7.6595065614       12.0226177961       21.0957685516
  H         7.7935913208       13.8481874993       21.0515250268
  C         6.1600462601       12.9605278785       19.7959585982
  C         3.3832917834        7.2144322439       16.0915859615
  H         2.6794250012       10.7184860761       28.5462751345
  H         1.7785633140       11.0393774604       30.0132252147
  C         3.1720227738        9.3914973260       30.3773052982
  H        -2.3782161798       10.1745944335       26.5838660809
  H        -2.8996327600       10.8455550747       27.9967490888
  C        -3.9989577886        9.0820843622       27.2910376776
  C        -1.5303096925       15.2011233228       31.9605524891
  C        -1.9535681067       13.1040008700       33.0240648675
  H         5.4293110046       12.1579878691       19.7728967530
  H         5.6874163742       13.9731492143       19.7931703084
  C         6.9362770575       12.9433884549       18.5053316932
  H         3.3812536279        6.1225233535       16.0528871927
  C         3.6297519231        7.6845876369       14.8264285961
  H         3.2990397222        8.4650178660       29.9039467933
  H         2.6749556741        9.1676732395       31.3898090286
  C         4.6199260006        9.9805567803       30.5327194914
  H        -3.8536030600        7.9989468739       26.9999145704
  H        -4.5901786259        9.0435498994       28.2266587533
  C        -4.8473854890        9.8017323583       26.2825800198
  N        -1.2262555893       16.1765818388       30.9782885474
  C        -1.9371263255       15.8062687885       33.1382956539
  C        -2.2240653669       13.7063850637       34.2865709084
  H        -1.8379774310       11.9828323360       33.0718168622
  H         7.9188578412       12.4884983864       18.6306395129
  H         6.4101479974       12.2958796628       17.8817171143
  H         6.9624859766       13.8085765377       17.9639473743
  S         3.7429718239        9.3390136005       14.4453776167
  C         3.7017529077        6.8494613053       13.5726876416
  H         4.6554484686       10.6524666549       29.6933305938
  H         4.7507142861       10.5664131583       31.4118303957
  C         5.7590481945        8.9149802121       30.4099537610
  H        -4.4494033676        9.5609110477       25.2851162523
  H        -4.7921952479       10.8852776097       26.3658541989
  C        -6.3641392191        9.5429159318       26.3810668480
  S        -1.5290169190       17.6335522929       31.5630823523
  N        -2.0970437780       17.1728518117       32.9683491231
  C        -2.1996821110       15.2045720434       34.3608351879
  H        -2.4257183945       13.1364522145       35.2171295014
  C         4.0075457378        8.9285686900       12.7328747083
  N         3.9256170497        7.5927036716       12.5101477218
  O         3.6739369390        5.6361253241       13.6882158730
  H         6.7770393102        9.3033244153       30.5311066029
  H         5.6141738359        8.5854908388       29.3412105558
  C         5.6207990983        7.7115360212       31.3418625330
  H        -6.6144716512        8.6229449851       26.0449156981
  H        -6.6223347217        9.6681466809       27.4731955040
  C        -7.1110718016       10.5701425388       25.5242622433
  C        -2.5405547657       15.9267328264       35.4735447261
  S         4.5151527523       10.0343614949       11.5205163451
  C         3.9750237956        6.9860578682       11.1498731943
  H         5.5210767016        8.0820339792       32.3601868310
  H         4.5747315630        7.3981956565       31.0836079348
  C         6.6549024776        6.5709671769       31.2221472416
  H        -6.3723045747       10.9878622535       24.9143641812
  H        -7.5478302829       11.3135735533       26.1726478826
  C        -8.2516708386        9.8237034670       24.7825033612
  H        -2.0822093219       16.8704881902       35.4234752170
  C        -3.0519059672       15.7030950452       36.6835253772
  H         4.4608638183        7.6016556614       10.4448684042
  H         4.4941579474        5.9942574532       11.2229627151
  C         2.5181041178        6.7052269229       10.7291783085
  H         6.2402153267        5.7023012288       31.6938614095
  H         7.6024702971        6.6959853509       31.6931648822
  C         6.7067507909        5.9967018608       29.7956365119
  H        -8.4560935090       10.3412604241       23.8808562235
  H        -7.9798027022        8.8154573456       24.4731610438
  C        -9.4848990118        9.6474586861       25.6519714218
  S        -3.6371350204       14.1852134624       37.2593616393
  C        -3.1648924735       16.7939540485       37.6693980489
  H         2.5174659456        6.1102740492        9.7966315745
  H         1.9196985856        6.1122199346       11.4039111553
  H         2.1194808515        7.6700908875       10.3446191555
  H         5.7123012941        5.9248306882       29.3500352186
  H         7.3026117815        5.0567895964       29.7412393346
  H         7.2255205940        6.7586579683       29.1916378014
  H       -10.4484402292        9.5371297445       25.0521199205
  H        -9.5902673756       10.4952967189       26.2988769977
  H        -9.4973266068        8.7366739894       26.2737313176
  C        -3.9461508530       15.0474164732       38.7709076867
  N        -3.6529713845       16.3226402002       38.7985448633
  O        -2.9561880431       17.9468857949       37.3734863971
  S        -4.5707220642       14.3415321881       40.3158288006
  C        -3.7765211805       17.2038497527       39.9773765792
  H        -3.9695603702       18.2134032200       39.6624601878
  H        -4.5814280484       16.8444614279       40.5660648820
  C        -2.4024289739       17.2590835410       40.6628322835
  H        -1.6426008346       17.5767281805       39.9480935863
  H        -2.4064538868       17.8278337937       41.6482529066
  H        -1.9842697815       16.2997557730       40.9006432545
