352
 i =    88300, time =    88300.000, E =        25.2848418488
  H         9.6276344383        7.0782219920       31.0901905795
  C        10.6334876778        6.8069946219       31.5055761435
  H        10.9357409525        7.7992954450       31.8487165417
  C        11.5489918674        6.1642237941       30.5129210178
  C        10.2867891350        5.9046720123       32.6428579660
  C        10.7911769705        5.0190098155       29.8776509929
  H        11.9679825387        6.8546835955       29.7804576724
  H        12.4090401176        5.9018716394       31.1439380977
  H         9.4026147904        5.3473327282       32.3175508559
  H        10.9690330955        5.2651188356       33.0291052117
  H         9.9649728846        6.3537802362       33.5333045744
  C         9.7616074129        5.4333209124       28.8230554349
  H        10.1877507858        4.4157671552       30.5866171471
  H        11.5196033205        4.3568547309       29.3019404568
  C        10.3316029032        5.5944702767       27.4543596118
  H         9.0146586240        4.6467908804       28.6725085340
  H         9.1166523501        6.3158612815       29.1320242561
  C         9.5492656527        5.0368220739       26.2920314057
  H        11.3215537659        5.1607162666       27.3676151176
  H        10.3814343377        6.6911147878       27.3383071564
  C         8.2397834442        5.9219447028       26.0093875378
  H        10.2223905105        5.0180582126       25.4184139423
  H         9.2380813251        4.0464052912       26.5362292188
  C         7.1112502727        5.0950898500       25.2998512249
  H         7.9172799460        6.5226221181       26.8753891149
  H         8.3763365986        6.6632653832       25.2410204026
  C         6.7737292754        3.7304166335       26.0095114103
  C         7.5816479362        4.2685511653       24.1075762460
  C         5.8668727120        5.8834648159       24.7899977076
  C         6.9602363341        2.6206241607       25.2478151175
  C         6.3669143913        3.3842730964       27.3388652967
  C         7.4366902502        2.9390654262       23.9884273779
  C         8.1527803326        4.9131463870       23.0033039380
  H         5.4551014451        5.2623468408       24.1046658555
  H         6.1550911379        6.7813688873       24.2223248155
  C         4.9679148781        6.3476501482       25.9177379549
  S         6.4963240826        1.1557662501       26.0720814286
  C         6.1103746662        2.0792407402       27.4888416663
  H         6.2709020772        4.1784996335       28.0610377361
  C         7.9605461830        2.2874100511       22.9575476321
  H         8.1062765284        6.0059918308       23.1014643022
  C         8.6053578898        4.2106861123       21.9120352906
  H         5.0486845013        5.6209782177       26.7646833536
  H         5.3275719344        7.2558123359       26.3814359996
  C         3.5332283060        6.3972413586       25.4127450284
  C         5.6425217386        1.4183975175       28.7063061937
  C         8.5428869528        2.8669882767       21.8215667759
  H         7.8346590070        1.2716185940       22.8570979068
  C         9.0030385911        4.5576861628       20.6701091083
  H         3.1089384189        5.4881689241       24.8603921833
  H         3.4347678285        7.2063266402       24.6554915364
  C         2.5958293406        6.6224013825       26.6516900728
  C         5.6655406193        0.0574644394       29.0496978626
  C         5.1238067428        2.2487963124       29.8500519436
  C         9.0303163610        2.1172100289       20.6068582483
  C         9.1946456948        3.4770685922       19.8258272015
  S         9.3382365019        6.0358436039       19.9467819614
  H         1.7962815116        7.2660877293       26.3478483713
  H         3.0578071500        7.2119760366       27.4451846297
  C         1.9499288979        5.3669299281       27.1546765661
  N         6.0216616500       -0.9752088088       28.1149319676
  C         5.3596324115       -0.5779024942       30.2448357412
  C         4.7826046234        1.6465534969       31.0844404754
  H         5.0816164684        3.3000265678       29.7274718889
  C         7.9872881395        1.2554863704       19.8257962710
  C        10.3636673612        1.3367706902       20.8153847824
  C         9.5669314142        3.8201297864       18.5191383980
  C         9.5798539925        5.1768361124       18.4007913150
  H         1.4597445542        4.8673729330       26.3394533261
  H         2.6791605580        4.6918617547       27.3352716682
  C         0.9565710143        5.5355129695       28.2767086706
  S         5.9924394448       -2.4761587588       28.8102968517
  N         5.5748154538       -1.9883711893       30.3418933005
  C         4.7929621414        0.1620490087       31.2902420915
  H         4.5292500469        2.2941723678       31.9457172981
  H         7.7648763700        0.3412123610       20.4772916970
  H         8.2436968444        0.8254603882       18.8263523498
  C         6.7329642858        2.0296375648       19.4876189851
  H        10.4070934605        0.7113319859       19.9274719310
  H        10.2111172881        0.6575670770       21.6244364913
  C        11.6628386732        2.2617408156       21.0097629254
  H         9.6928691009        2.9975775254       17.8135337103
  C         9.9125545104        5.9477936803       17.1029405222
  H         0.7037419173        4.5293611111       28.6309354713
  H         0.0793697970        5.9298649028       27.8134966684
  C         1.3428015328        6.3258174531       29.5930204053
  C         4.5962957799       -0.5177171319       32.5065734701
  H         6.8778530780        2.5839286188       18.5869306614
  H         6.4441872362        2.6433570662       20.2962213243
  C         5.4731893231        1.1920253941       19.0860265232
  H        11.3752750876        3.2253108141       21.4648567070
  H        12.0194493366        2.5915510142       20.1127284388
  C        12.8212056230        1.5206427204       21.7213054032
  C        10.0167775453        7.3536784625       16.9724148776
  C        10.1450671690        5.1892306562       15.8176829498
  H         1.8855153808        7.2413212734       29.2917965201
  H         0.4454095522        6.6880381347       30.0992034051
  C         2.2037117596        5.6218169084       30.6451628485
  H         4.6702019762       -1.5216955763       32.4246753754
  C         4.2828444279       -0.0304012496       33.7577887103
  H         5.0391810556        0.6887823415       19.9757801692
  H         5.8393634199        0.4560800351       18.3174567846
  C         4.3259278278        2.0924740821       18.5720068005
  H        12.8583940753        1.8604705061       22.7427999664
  H        12.7219490159        0.4534663804       21.8798323571
  C        14.0841940190        1.8202519449       21.0478262268
  N         9.6697183708        8.2382112553       17.9803743150
  C        10.4056924688        8.0101836988       15.7887772574
  C        10.5319718501        5.8631359356       14.6415132186
  H        10.0951417660        3.9975533105       15.9380686743
  H         2.7419360658        6.2773689938       31.3290973419
  H         1.6547961482        4.8256876494       31.2255365133
  H         3.0004733274        5.0325130620       30.1964368086
  S         3.8943024298        1.5690835885       34.2489947920
  C         4.2676068949       -1.0161913354       34.8461560916
  H         4.6477581571        3.1339204390       18.6508232474
  H         4.3345166193        1.9773679129       17.4444845685
  C         3.0500719477        1.7107396230       19.2553953739
  H        14.2869436972        2.8861979737       21.2787652814
  H        14.0539168697        1.6580102957       20.0531836371
  C        15.2775438761        1.1505854400       21.6612475908
  S        10.0711902685        9.7831911628       17.4804910474
  N        10.6522833372        9.3620334810       16.0312192114
  C        10.7420297109        7.3334898469       14.6208677505
  H        10.8620549766        5.2468345560       13.8288831666
  C         3.7854289725        0.9796989144       35.8808435456
  N         3.9007022658       -0.3710033209       35.9809663686
  O         4.5404700617       -2.2203300123       34.7579843613
  H         2.5965444087        2.6792642486       19.4681675568
  H         3.1017819986        1.1779100906       20.2448125349
  C         2.1336753337        0.8557511009       18.3188726764
  H        14.8803323578        0.2244330113       21.9496944841
  H        16.1179884511        1.0308214284       20.9148808697
  C        15.8934034093        1.9002238292       22.8601347952
  C        11.1285113706        8.1658869240       13.4809850436
  S         3.4971286468        1.9338556642       37.3233087948
  C         3.9855812746       -1.0589737747       37.2847861207
  H         1.2342218482        0.8641908128       18.8909807858
  H         2.1213893048        1.2230179197       17.3203530767
  C         2.6325024193       -0.5869507109       18.2831164559
  H        15.1891938648        1.9338438985       23.6782388052
  H        16.2347271248        2.9108382405       22.5883132665
  C        17.1219003543        1.1153982837       23.2940448511
  H        11.0317978750        9.1544534086       13.6483495540
  C        11.5288270965        7.8902058021       12.1778118078
  H         3.1790252858       -0.7582907583       38.0457249649
  H         3.8337782535       -2.1762011853       37.1664185344
  C         5.3875704884       -0.9781784300       37.8928118780
  H         2.6872925903       -1.0780626713       19.2964042171
  H         3.6821853999       -0.6827237626       17.9258455160
  C         1.7120327752       -1.5356209506       17.5938150358
  H        17.1417065658        1.3370015668       24.3742576185
  H        17.0293210654        0.0322514342       23.1649444351
  C        18.4744642634        1.4887896130       22.6736851685
  S        11.8398947145        6.3803072662       11.5162954215
  C        11.7713680276        9.0720915459       11.3089765129
  H         5.6423171896       -1.8862057946       38.5385376599
  H         6.0192530185       -0.8009496209       37.0704831338
  H         5.3047467999       -0.0655889773       38.4847359224
  H         2.3592807800       -2.2751253388       17.0806791805
  H         1.0558203944       -0.9017462221       16.9900827032
  H         1.0802701203       -2.0898878216       18.2574331732
  H        18.5273876311        2.5362104309       22.5408515128
  H        18.6735959654        0.9107466386       21.7655788159
  H        19.2613633893        1.2837872737       23.4021913364
  C        12.2234830423        7.2153926929       10.0568433696
  N        12.0000074796        8.5650860675       10.0598018574
  O        11.2925836364       10.1921959379       11.5777631357
  S        12.4892634018        6.4336026637        8.5302710436
  C        12.0468745333        9.4042680299        8.9159771196
  H        11.9302235198       10.4570043559        9.1714561104
  H        12.9740834391        9.3168630185        8.4045309754
  C        10.8070635059        9.2183223669        7.9433826609
  H        10.5449933378       10.1350086612        7.4597820544
  H        11.0059341517        8.4462344599        7.1318601437
  H         9.8898877891        8.9476667068        8.4371412824
  H        -3.3764678389       14.7669948650       16.3229760303
  C        -3.1885448396       13.6058571675       16.3207058229
  H        -4.0835716187       13.0739558827       16.6616355929
  C        -2.0423055450       13.4961872469       17.3923775341
  C        -2.7778554696       13.3175498782       14.8832715524
  C        -2.5737958760       13.9813027627       18.7573926266
  H        -1.7550590541       12.4728233493       17.4891858157
  H        -1.1666077143       14.0409805557       17.0974232450
  H        -3.5604594479       13.6384843722       14.2975676349
  H        -1.7909825052       13.7619724184       14.6701472838
  H        -2.7541416362       12.2413478740       14.5737240184
  C        -2.6887672736       12.9406585111       19.9182993703
  H        -3.5150266533       14.4354850435       18.5551411358
  H        -1.8580660812       14.7029728845       19.1220242752
  C        -2.5891879214       13.4083495557       21.3645120370
  H        -3.5163138235       12.1637801982       19.8499528181
  H        -1.6872083472       12.5160683560       19.7803744549
  C        -1.4164760136       12.8981924316       22.2137398186
  H        -3.4802240174       13.0621902802       21.8925534226
  H        -2.4846178719       14.5054983172       21.4102823138
  C        -0.2348888680       13.8484077589       22.3559385993
  H        -1.8685635308       12.6739315017       23.2236350926
  H        -1.0689992509       11.9655859421       21.7643506166
  C         0.9276887838       13.2069516003       23.1231076335
  H         0.0739398281       14.2142182589       21.3814510527
  H        -0.5761069978       14.6895259636       22.8816990777
  C         1.2960003867       11.8604177729       22.4815249776
  C         0.4524459948       12.5085290421       24.4341426671
  C         2.1576480455       14.0720095386       23.1372987710
  C         1.1512108786       10.7431831786       23.2733017390
  C         1.7785626632       11.5015558854       21.1901454389
  C         0.5831978769       11.1609770633       24.4908406159
  C        -0.0767742454       13.1908866819       25.5109216429
  H         2.3795123894       14.6070545079       22.2459190866
  H         1.9477981792       15.0019724423       23.6723347095
  C         3.3472551611       13.3896934834       23.6250707859
  S         1.6221399600        9.3332221565       22.5458697809
  C         1.8865595976       10.1533062120       21.0319070496
  H         2.0251251591       12.2863136236       20.4578769260
  C         0.0681537612       10.5201124597       25.5781412877
  H        -0.2397104976       14.2519188484       25.4673654805
  C        -0.4464372871       12.5466646707       26.6530561632
  H         3.5561350211       12.5420117993       22.9703652331
  H         3.0085339054       13.1694258023       24.6387658150
  C         4.5709146305       14.1964929782       23.6850974572
  C         2.4586177309        9.4382787058       19.8890354174
  C        -0.3612906564       11.1868682412       26.7776280964
  H         0.1085066962        9.4621455062       25.5020592817
  C        -0.8401302982       12.8891273015       27.9271831812
  H         5.2745545509       13.7349021497       24.4639283106
  H         4.2977191464       15.1572327436       24.0444602048
  C         5.2583048327       14.2627956729       22.3443235305
  C         2.5549671537        8.0047989332       19.7644637991
  C         2.9621734233       10.2386381950       18.6946105612
  C        -0.8106290008       10.4644761477       28.0534034472
  C        -1.1940993574       11.7844639914       28.7021912315
  S        -1.1084476144       14.3765737798       28.7118724912
  H         5.7099596659       15.1607924590       22.2644295872
  H         4.4522437954       14.2593220520       21.6024306597
  C         6.1531319094       12.9598186920       22.1467619750
  N         2.0820002840        7.0062859130       20.6184457210
  C         2.8649435807        7.4556103995       18.5222250997
  C         3.4171728683        9.5838190868       17.5475210582
  H         2.9303110754       11.3187633887       18.7431309155
  C         0.4772984799        9.8815522124       28.7208525598
  C        -2.0911683298        9.4693511674       27.9630204547
  C        -1.5587610581       12.1640752922       29.9797622969
  C        -1.6387590885       13.5153548969       30.1057835287
  H         6.7700212704       12.8209457894       23.0092270011
  H         5.4669620458       12.1321908175       21.9676597942
  C         7.1952391523       13.0400830326       21.0023100925
  S         2.2415939511        5.5133746531       19.9631695951
  N         2.8329147500        6.0483013785       18.5262668724
  C         3.2749126930        8.1941738238       17.3521888266
  H         3.6231384449       10.2495398686       16.7689705958
  H         0.9083862122        9.2228263722       27.9896836445
  H         0.0680900688        9.2577615172       29.5838572010
  C         1.6340871341       10.8982170681       29.1418380723
  H        -1.7624057467        8.6980774639       27.1617494011
  H        -2.2645588443        9.0803563609       28.9448570637
  C        -3.4001576309       10.1561501656       27.5924230372
  H        -1.7793370910       11.3889246802       30.7330079943
  C        -1.9678726119       14.2539117222       31.3337576393
  H         7.9093507114       12.1405041839       21.0010798988
  H         7.8969763191       13.8634151703       21.2670518018
  C         6.4955637204       13.2610892540       19.5947555169
  C         3.5726832502        7.5255721517       16.1253078772
  H         1.9113998083       11.5377905616       28.3551712914
  H         1.3436570874       11.4036943222       30.0270702693
  C         2.8538901940       10.0567779267       29.5922156346
  H        -3.3238991453       10.7879360321       26.6819112042
  H        -3.6813488285       10.8611550095       28.3771432518
  C        -4.5747907036        9.1871898924       27.4922244353
  C        -2.0070289912       15.6522839763       31.5718497913
  C        -2.2269751831       13.4199931517       32.5548878449
  H         5.9349060428       12.3716496889       19.3091919060
  H         5.6384734605       13.8979817624       19.6181144193
  C         7.4067162120       13.6268353050       18.4740612364
  H         3.4708555956        6.4360625722       16.2068255709
  C         3.7702247622        7.9485179872       14.8274600875
  H         3.0838091975        9.3317410269       28.7795445035
  H         2.4847958470        9.3490319871       30.3491964316
  C         4.1523003652       10.7058215369       30.0652645119
  H        -4.4735720766        8.5111072250       26.5944343056
  H        -4.4176348231        8.5480757336       28.3259133779
  C        -5.9292921380        9.8674299823       27.4171235941
  N        -1.7442515943       16.6184305400       30.5865565389
  C        -2.3230334788       16.2094229629       32.8185861164
  C        -2.4992418108       13.9755545057       33.8036624260
  H        -2.0665571256       12.3917477387       32.3533717434
  H         6.7491050018       14.1652587837       17.8016262309
  H         8.1031067873       14.4059611949       18.8455247856
  H         7.8394753976       12.7757312064       17.8858986698
  S         4.1528624611        9.4945598330       14.3245894468
  C         3.8892023590        6.9285108389       13.7510357453
  H         4.5218249042       11.1984680185       29.1622030046
  H         4.0062670907       11.5243993062       30.6739412796
  C         5.1709249847        9.7506711051       30.6395996738
  H        -5.9906875116       10.6950682932       28.1275375987
  H        -6.6721227680        9.2090775453       27.8444179204
  C        -6.1918660655       10.3009699146       26.0026405469
  S        -1.8781815726       18.0868839465       31.3384392397
  N        -2.4266682288       17.5783992734       32.8047882873
  C        -2.6707421047       15.4129845291       34.0252768922
  H        -2.4603094348       13.3446638760       34.6766173170
  C         4.3677039233        8.7716390695       12.7229611911
  N         4.2787346107        7.4150771559       12.6127847441
  O         3.5782978290        5.7583002809       13.9604540921
  H         4.7278580366        9.1410139938       31.4169053022
  H         5.9813530548       10.2369753080       31.2110105663
  C         5.8341391921        8.8421931339       29.6560445608
  H        -5.5327992120       11.1013766262       25.5938232252
  H        -5.9936256472        9.4033400798       25.4212514809
  C        -7.6676656018       10.7890803290       25.9379341674
  C        -3.0209202100       16.1139022311       35.1950492770
  S         4.7505374453        9.7695427697       11.3699825585
  C         4.1566035792        6.7113334927       11.3691288821
  H         5.9431067743        9.3374113954       28.7526553606
  H         6.9126892737        8.8441778384       30.0984754126
  C         5.5828642257        7.3162091732       29.6165792565
  H        -7.7227651057       11.0232815727       24.8738306145
  H        -7.8602353930       11.7317585799       26.4199942894
  C        -8.7242807045        9.7589147142       26.1818497683
  H        -2.9956372004       17.1920427553       35.0998164336
  C        -3.3232938130       15.6520990466       36.4475167460
  H         4.9911162316        7.0253036668       10.7374470567
  H         4.3158697683        5.6161059132       11.4272747214
  C         2.8540295258        6.7905686751       10.6801005437
  H         6.0409000598        6.8698708011       28.7476968309
  H         4.4723349416        7.1600421244       29.6579888740
  C         6.1129394070        6.5372587113       30.8679461741
  H        -8.5188655849        8.9625324737       25.4804981004
  H        -8.6151462275        9.2745974395       27.1680364832
  C       -10.0937232794       10.3526919505       26.1127841902
  S        -3.5804309627       14.0458025521       36.9341382544
  C        -3.3712823119       16.6578080404       37.5460300983
  H         3.0701366894        6.9693778411        9.6514790070
  H         2.4289881323        5.8628867279       10.7095372739
  H         2.0826092367        7.5331556354       11.0342646599
  H         5.7988611735        5.5407148894       30.9133686761
  H         5.9420895662        7.1260687581       31.7856602930
  H         7.2073041799        6.5381703867       30.8705988125
  H       -10.1919751687       11.2867089339       26.6121430204
  H       -10.8142376807        9.6306905070       26.4989087512
  H       -10.4372554176       10.4241609929       25.0134965691
  C        -3.9823279027       14.6563251979       38.5122853631
  N        -3.8749163030       16.0219515514       38.6802794145
  O        -3.2756543911       17.8537413346       37.4083303001
  S        -4.7631983596       13.5953388144       39.6879981217
  C        -4.3203448232       16.8254404568       39.8570669828
  H        -4.6906339188       17.7902240776       39.5972107226
  H        -5.1024581384       16.2961627494       40.4451666131
  C        -3.0732157312       16.8906652654       40.7502847169
  H        -3.0955118980       16.2091573518       41.6098574767
  H        -2.2054639295       16.6299674364       40.1503899704
  H        -2.9128765217       17.9474790218       41.0691487488
