352
 i =     1400, time =     1400.000, E =        49.6521678726
  H        11.7591884607        7.2079027430       31.9724484516
  C        11.5243324632        6.1279192077       32.1549884701
  H        12.3803208479        5.3296029019       31.8131670776
  C        10.3206857220        5.8792789439       31.1924021189
  C        11.2425831340        5.7745675760       33.5883857120
  C        10.8275793440        5.8779247666       29.7381280358
  H         9.6610558583        4.9614564704       31.3931436039
  H         9.6319797583        6.7199203583       31.4539967218
  H        10.9636748135        4.7896332898       33.6737914974
  H        12.1691603348        5.7572513366       34.0508153416
  H        10.5430589289        6.4309299550       33.9714052239
  C         9.7161386001        5.7139170345       28.7493907665
  H        11.3756521248        4.9009578598       29.6889989090
  H        11.5451828436        6.7185666549       29.5581830255
  C        10.2385871484        5.7323713868       27.2716700291
  H         9.3147686781        4.6746153082       29.0424001756
  H         8.9015369989        6.5578736349       28.6739063819
  C         9.2775647647        4.9423914833       26.3251205183
  H        11.1490839995        5.3790226899       27.2585348825
  H        10.1356013035        6.7085943397       26.9448663371
  C         8.0154407716        5.7781085557       26.0358471881
  H         9.7900132859        4.6854664275       25.5020179417
  H         9.1352345616        3.9829483478       26.9371424376
  C         6.9445225060        5.0885879153       25.2538057378
  H         7.5674314930        5.9475234954       27.0123080841
  H         8.2658379784        6.7853714626       25.7237897731
  C         6.6395707685        3.7248341003       25.9763008831
  C         7.6278378392        4.3380761219       24.1305017467
  C         5.6803850895        6.0042968914       24.9566863657
  C         7.0684210191        2.6537486381       25.2430248258
  C         6.0493056844        3.3804417462       27.1297757218
  C         7.6558389351        3.0428517777       24.0459942035
  C         8.0375027425        5.1409185008       23.0370619221
  H         5.7116816045        6.8433371095       24.2227045693
  H         5.3753292792        6.5146532479       25.8517525268
  C         4.4182646347        5.2135531900       24.5302712052
  S         6.5744296036        1.2153056332       25.9469643736
  C         6.0720255684        2.0714885928       27.3975566427
  H         5.6255965218        4.0463087837       27.7915055002
  C         8.1585740899        2.5400760151       22.8575508214
  H         7.9859566078        6.2095123426       22.9012894538
  C         8.5492603408        4.5524703002       21.8753375563
  H         4.5040924497        5.1149009143       23.4676259591
  H         4.3344488238        4.3067995907       25.0281185947
  C         3.0236303378        6.0054287289       24.6262995920
  C         5.8300930511        1.4091795745       28.7435068844
  C         8.5690637334        3.2156099227       21.6931159915
  H         8.0766126562        1.4908888508       22.8849211009
  C         9.0341444533        5.0142120609       20.6907910541
  H         2.2892172123        5.5704554943       23.9401557665
  H         2.9373635967        6.9324041749       24.0528163353
  C         2.3649764206        6.2548550676       25.9846977753
  C         5.8926598075        0.0220460516       29.0148811491
  C         5.4318753126        2.3490909037       29.9335220968
  C         9.0799343922        2.5093553541       20.5776895380
  C         9.3144295764        3.9204570076       19.8767403035
  S         9.2405533241        6.5458266696       19.9396341205
  H         1.5012063737        6.9731234183       26.0496619126
  H         3.0892944853        6.6909209518       26.6789420788
  C         1.8196502452        4.9895327163       26.6708357112
  N         6.3277119090       -0.9138754960       28.0564143126
  C         5.4571980455       -0.5036333981       30.1890772213
  C         5.1183640610        1.7689847502       31.1774797522
  H         5.5507663648        3.4562789499       29.8821373663
  C         7.9977576813        1.6693073673       19.8034570374
  C        10.3643524267        1.6992297355       20.9142613524
  C         9.6510498770        4.4081785091       18.6138512541
  C         9.7389301251        5.7322425712       18.4922937474
  H         1.3025407019        4.3410898475       26.0386122682
  H         2.7440025715        4.4126275072       27.1652345469
  C         1.0088219249        5.4160641297       27.9066338016
  S         6.1219810225       -2.4103656827       28.6408437028
  N         5.4564693985       -2.0203730061       30.0977847049
  C         5.1314398905        0.2692999271       31.3233081164
  H         4.7745436768        2.4362531949       31.9575294030
  H         7.7215289355        0.9536641049       20.5095905689
  H         8.4465558076        1.2434844222       18.8209999414
  C         6.7232914941        2.4009049528       19.4464913354
  H        10.6575007672        1.0567588802       20.0211479887
  H        10.2146632153        0.9422651889       21.6786881985
  C        11.4666021662        2.6551992839       21.3943833661
  H         9.9167633694        3.7185892031       17.8046459467
  C        10.0071034362        6.4535246324       17.1689850354
  H         0.3889122118        4.5063074647       28.1798262874
  H         0.2603280544        6.2229432182       27.6525304874
  C         1.9580764237        5.7577483419       29.0644733771
  C         4.9042945207       -0.5454794098       32.6083611476
  H         6.9402741299        3.2191326526       18.8495086364
  H         6.2174966380        2.8788123727       20.2745604410
  C         5.6492555487        1.4239620335       18.8240886033
  H        11.1546051090        3.0918854648       22.4057134530
  H        11.7355661606        3.3966097979       20.6115664357
  C        12.7696654120        1.9326910126       21.6802178304
  C        10.0777350666        7.8162980893       17.0722408347
  C        10.0783990963        5.6659015574       15.9405636662
  H         2.7285874251        5.0476476960       29.1143495031
  H         2.4557905239        6.6323018820       28.9144403689
  C         1.1888364061        5.8669447841       30.4229548044
  H         4.9127788402       -1.6497623248       32.6343847003
  C         4.6886849773       -0.0563759686       33.8207657002
  H         5.4423335858        0.6395765415       19.4618614689
  H         5.8794412343        0.9631225063       17.8550796167
  C         4.3193515364        2.2499160825       18.4624439405
  H        12.7001066988        1.0789237304       22.3102136579
  H        13.1711668257        1.4490850850       20.7668049295
  C        13.7478162478        2.9556339566       22.1975757914
  N         9.8883175023        8.7239218863       18.0849619690
  C        10.2930804285        8.4848052490       15.8413364484
  C        10.4375205431        6.3431872810       14.7534133333
  H         9.9152396607        4.5730831005       15.8339319669
  H         1.9780738867        5.9230331339       31.0913618709
  H         0.5829546151        6.6620987483       30.3885651200
  H         0.4662518480        5.1006885318       30.5218038552
  S         4.4238207656        1.5579986716       34.2914630454
  C         4.5320325177       -1.0668105071       34.9103456394
  H         4.1790963583        3.1984757450       19.0599269486
  H         4.3623498461        2.6546315370       17.4102129599
  C         3.1534248461        1.3019520245       18.3600574827
  H        13.2038092343        3.6214648672       22.8695721988
  H        14.0290150856        3.4383978785       21.2566982937
  C        14.9068065705        2.2717316506       23.0208385193
  S         9.9342068288       10.2780065557       17.5043596669
  N        10.2705417554        9.8733596973       15.9587274479
  C        10.6027529462        7.8243008544       14.7130713641
  H        10.6081809523        5.8650019580       13.8045611076
  C         4.3812656602        0.8783481078       35.9486012547
  N         4.2818990577       -0.4201674938       36.0659062204
  O         4.4195352214       -2.2921339856       34.6686765364
  H         2.3717276398        1.9372646144       17.9716894514
  H         2.7177577516        0.8933954037       19.4322756316
  C         3.3686708230       -0.0283563757       17.5668359233
  H        14.3729261560        2.0067794649       23.9229990299
  H        15.1524612971        1.3886608727       22.5206227403
  C        16.2143495588        3.0649889056       23.1579637775
  C        10.9478252059        8.5986617237       13.5152618064
  S         3.9175304720        1.8620646086       37.4139884665
  C         4.2672318453       -1.1735370907       37.3635128092
  H         3.1910455481        0.0966528400       16.6062770434
  H         4.3706300905       -0.4412363481       17.7186234633
  C         2.2193002166       -1.0800847909       17.7252481832
  H        16.1724212379        3.7255660988       23.9572054653
  H        16.2878438409        3.7071118561       22.3274264612
  C        17.3980123008        2.1810002989       23.5747654356
  H        10.5874679061        9.5072045664       13.5502478539
  C        11.4025396980        8.1741191372       12.2341711519
  H         3.5622759722       -0.7189637847       38.1062908160
  H         3.7225236723       -2.0214394291       37.0206205721
  C         5.6788326176       -1.4930542178       37.9420713436
  H         1.1314622562       -0.8146744107       17.5390038272
  H         2.0661029346       -1.2883033771       18.7709794345
  C         2.5433098680       -2.4491501980       17.0359553447
  H        18.0263075816        2.5526101131       24.3474136563
  H        17.0057604882        1.3095662634       23.9080234469
  C        18.3508286550        2.0260279598       22.5289909291
  S        11.9197550506        6.6240220409       11.6750429545
  C        11.4465358452        9.3280419393       11.1595722374
  H         6.0461769270       -0.7345633310       38.4648778205
  H         5.8220602899       -2.3847713990       38.4823098815
  H         6.2780432541       -1.6020026833       37.0512520110
  H         2.0387322124       -3.1595259845       17.7178681880
  H         3.5750101663       -2.8054450509       17.0333022500
  H         2.1340053769       -2.5520216960       15.9935861297
  H        17.7183348036        1.5886404521       21.7766620186
  H        19.0708111620        1.2873872052       22.8673312389
  H        18.9233733699        2.8962594293       22.3504096032
  C        12.1762454976        7.4703855267       10.0932718148
  N        11.9688657095        8.8305210602       10.0529797107
  O        11.0225390691       10.4287278338       11.4228060074
  S        13.0386264129        6.6729071809        8.7482477068
  C        12.1773006806        9.6388915120        8.8381919430
  H        12.2478902612       10.6354968586        9.2066969458
  H        13.0601662071        9.2426589330        8.2698747456
  C        10.9560093876        9.4250511173        7.9476859667
  H        10.5635192393        8.4671057376        8.2504310990
  H        10.2446295097       10.0936301306        8.2107786242
  H        11.2718861692        9.6479573132        6.9918317680
  H        -3.3282710255       14.6153203089       16.1317426016
  C        -3.1855016247       13.4631440504       16.2242320168
  H        -4.1081239993       13.0337945893       16.6399239992
  C        -2.1277819490       13.2553224176       17.1639861866
  C        -2.7697405511       13.0138818646       14.7762177003
  C        -2.4693511399       13.9089087208       18.5262032660
  H        -2.0462900468       12.1793824745       17.3646019217
  H        -1.1834783497       13.5614801882       16.7565632676
  H        -1.8618300140       13.4754326337       14.4747923609
  H        -2.4960091550       11.8924867045       14.7707857298
  H        -3.7183099393       13.0798976044       14.1844722400
  C        -1.4167171529       13.5738491666       19.5988492089
  H        -3.4278866617       13.6102254883       18.8640833764
  H        -2.3045428491       14.8863623681       18.1952673607
  C        -2.1300061517       13.3943401819       21.0610837368
  H        -0.6271551358       12.8662138902       19.4101497971
  H        -0.9463897482       14.5087314793       19.9243231570
  C        -1.3222131994       12.8821910913       22.2053467592
  H        -3.0011446347       12.7581157310       20.7711236264
  H        -2.8094333704       14.2635406037       21.3496173975
  C        -0.0705877341       13.6796651201       22.5555347225
  H        -1.9913563595       12.8122078386       23.0375449812
  H        -1.0328624197       11.8875929519       21.9380528636
  C         1.0153107532       12.9613721853       23.3796317592
  H         0.2392921361       13.9778520982       21.5508292623
  H        -0.3539517395       14.5234220844       23.2104315987
  C         1.3177435334       11.5628748067       22.6553772502
  C         0.4908059135       12.2553592585       24.5992354460
  C         2.1402498797       13.8958762893       23.6373869902
  C         0.9570669874       10.4811428636       23.4584698037
  C         1.9018867317       11.1777883132       21.5170495217
  C         0.4065546714       10.9157734610       24.6408306384
  C         0.0029478638       12.9076184041       25.7490627822
  H         2.3420032542       14.5129433919       22.7174385313
  H         1.7485722816       14.6912533116       24.2543218864
  C         3.3238751872       13.2323437155       24.4404264728
  S         1.3972747752        8.9097165702       22.8327626814
  C         1.9930337153        9.8326692507       21.3589240838
  H         2.2513450351       11.9362033992       20.8064219012
  C        -0.0660734433       10.3504318581       25.8052014187
  H         0.1113683914       13.8464820889       25.8734613186
  C        -0.4239263012       12.3857588505       26.8665439014
  H         3.8331204340       12.3734469524       23.9899552565
  H         3.0541723445       12.8828592782       25.4504867708
  C         4.6401307347       14.0509097904       24.4155858706
  C         2.4494831460        9.0953674143       20.1056166975
  C        -0.5573365509       11.0421059857       26.9167874707
  H        -0.0595747008        9.2824541885       25.8230293301
  C        -0.8319814966       12.8296424448       28.1342866999
  H         5.3423537152       13.5604476050       25.1913178229
  H         4.1729164370       14.9811608598       24.8473704847
  C         5.2956443546       14.4386336990       23.0735123563
  C         2.6133378771        7.6985904827       19.8934214223
  C         2.9872862012        9.8957272396       19.0364518936
  C        -0.9101131973       10.3703941627       28.1537005009
  C        -1.0848764857       11.6864904291       28.8735877486
  S        -1.0719471650       14.3195536950       28.9124933408
  H         6.1777471355       15.0534233256       23.3562378192
  H         4.5292493457       15.1414100579       22.3979908772
  C         5.7788003704       13.1059746044       22.4475018474
  N         2.2240165747        6.7198162348       20.8710056436
  C         2.9793339347        7.0679929873       18.6971891522
  C         3.2582201166        9.2895937704       17.7822299487
  H         3.0225411803       10.9815690784       19.0899095730
  C         0.2923506061        9.6279022173       28.8404556789
  C        -2.2454530603        9.4150067095       27.9333132944
  C        -1.4936684421       12.0772628174       30.1887480233
  C        -1.5517292201       13.4933581459       30.3990048544
  H         6.3684118879       12.5546879650       23.0719494742
  H         4.9489220065       12.4815083191       22.1813075336
  C         6.6711132066       13.4150273061       21.2583939322
  S         2.4327735783        5.2029163936       20.2402343251
  N         2.9500103589        5.6487703068       18.8034984078
  C         3.2173462138        7.8283214252       17.6122020262
  H         3.5632226667        9.7218324935       16.9587773787
  H         0.6309619283        8.8156021921       28.0856569712
  H        -0.0341154317        9.1774575812       29.7825843660
  C         1.5597732576       10.4439762752       29.1491038615
  H        -1.9715306994        8.6243212085       27.3049029882
  H        -2.5111601176        9.0349941290       28.8894527961
  C        -3.5266631484       10.0982009461       27.4668850924
  H        -1.7444545238       11.2718848358       30.8476491032
  C        -1.7573946701       14.2225885028       31.6892527594
  H         7.4693079288       12.7492009689       21.3448860007
  H         6.8147181200       14.4478339218       21.4225725018
  C         5.7992851397       13.0707566005       20.0443460505
  C         3.3276581160        7.1083527411       16.2829319149
  H         1.9652435543       10.8921304278       28.1699598193
  H         1.3651788869       11.3507172861       29.6771783179
  C         2.6955323318        9.6957034894       29.7736427340
  H        -3.3939617663       10.8189087334       26.5700957623
  H        -3.8803447339       10.6727396899       28.3046988288
  C        -4.6873407782        9.2161350314       27.2186082295
  C        -1.8294729439       15.6752403916       31.7984063921
  C        -1.9628130338       13.4318295054       32.9503799899
  H         5.2857965793       12.0750500154       20.0702218452
  H         5.0186605487       13.7827260897       20.1568297199
  C         6.5512670435       13.3886277191       18.7344388519
  H         3.3379990489        5.9777417178       16.3335271154
  C         3.6891305063        7.6563344984       15.0778654127
  H         3.0052872016        8.8511637815       29.3140857907
  H         2.2929308211        9.0897408143       30.4903354726
  C         3.8568354518       10.4883917882       30.2098129538
  H        -4.6613784030        9.0554958312       26.1609174264
  H        -4.7364127518        8.2935385899       27.7900304502
  C        -5.9774813006        9.9551420326       27.3940888828
  N        -1.6328796028       16.5339780244       30.7755343299
  C        -2.0158938010       16.4073732503       32.9635520747
  C        -2.1298063024       14.2059187483       34.1339879933
  H        -1.7912830479       12.2664461648       33.0762587440
  H         6.0025204208       13.1397913707       17.8965639041
  H         6.9214855188       14.4598733210       18.7773384328
  H         7.4564625221       12.7494788232       18.7735418475
  S         4.0554134104        9.3025815190       14.5629855068
  C         3.8190434165        6.6627355446       13.9514566030
  H         3.9279959307       11.4269786536       29.5892772012
  H         3.7936437291       10.8231268936       31.2291704136
  C         5.1454610798        9.6841199912       30.1225157830
  H        -5.7661340149       10.9675167068       26.9586695268
  H        -6.0478979885       10.0822577674       28.4609107311
  C        -7.0880218485        9.1221299614       26.7770140947
  S        -1.6569294435       18.1275939560       31.2299312335
  N        -1.9889054101       17.7904851596       32.7645743277
  C        -2.2596374246       15.6751226101       34.1476598255
  H        -2.3182198221       13.6962393686       35.0515064293
  C         4.1598233029        8.6549352151       12.9632984771
  N         4.1203212486        7.2751418028       12.8119924405
  O         3.5248224533        5.4551428463       14.1311661540
  H         5.9636047193       10.3302356620       30.1379918219
  H         5.3468447099        9.1896717509       29.0752919790
  C         5.2603437954        8.5909230619       31.2751173391
  H        -6.6793961569        8.2427541810       26.3037901517
  H        -7.7521986922        8.9258352443       27.5519160875
  C        -7.7083028672        9.9748088673       25.6568626165
  C        -2.4662131962       16.4400676390       35.3370996893
  S         4.4653608642        9.5769970636       11.4904759976
  C         4.0090578993        6.5398281636       11.6111765023
  H         5.7948898159        9.0056509794       32.1208002857
  H         4.3396493680        8.4678345593       31.6720612877
  C         5.8277465619        7.3203665349       30.6605825442
  H        -6.8676067572        9.8228271136       24.9248534052
  H        -7.7596674193       11.1332440613       25.9427552002
  C        -9.0249035436        9.5226238808       25.2012373281
  H        -2.2432259225       17.4728929178       35.5039700458
  C        -3.0865137611       16.1995368554       36.5027906603
  H         4.7670557781        6.8022362603       10.8318592974
  H         4.2381395588        5.4746654446       11.8444617318
  C         2.5323293679        6.5321248287       11.0094578801
  H         6.7362226261        7.4724589923       30.0866185928
  H         5.0828467183        6.7157268517       30.1653294300
  C         6.3629308233        6.5030712401       31.8104954782
  H        -9.4667777759       10.1332105463       24.3605838836
  H        -9.1593631834        8.5145356722       24.9423557079
  C        -9.9425891426        9.7009507718       26.4005370003
  S        -3.6758428557       14.6403981708       36.8902364471
  C        -3.2929845310       17.2939409787       37.5630539711
  H         2.1943413524        7.4318419885       10.6550586932
  H         2.5063593615        5.8138684737       10.2184201344
  H         1.8551342258        6.1936360946       11.7612831099
  H         6.6934496394        5.4700157154       31.5369839523
  H         5.7523690102        6.6477268336       32.7430570603
  H         7.3231331364        6.9492882671       32.0213660069
  H        -9.7594260703       10.6847183330       26.8362473055
  H        -9.7589960945        8.9052324606       27.0464870634
  H       -11.0194173585        9.6113442564       26.1818325263
  C        -4.1408747720       15.3729849183       38.4747324967
  N        -3.9360968484       16.7076405979       38.5742113539
  O        -2.9044972884       18.4880218103       37.4048796320
  S        -4.9591096708       14.4494545780       39.7795802032
  C        -4.0824100501       17.3844536809       39.8594971684
  H        -4.0362053670       18.3939763533       39.6320372380
  H        -5.0848204816       17.2454874097       40.3243346368
  C        -2.8264316240       17.1248485198       40.8198602737
  H        -1.8400076223       17.3384190021       40.3075954995
  H        -2.9314944529       17.9599240121       41.5961044788
  H        -2.7882400563       16.0876234527       41.1421619733
