352
 i =    61900, time =    61900.000, E =        24.9976771430
  H        10.0337253416        4.8626091155       31.4590093369
  C        10.3439031412        5.7173311351       32.1006076417
  H         9.4571614154        5.9189613248       32.5565172412
  C        10.9174103569        6.7833329991       31.2092779133
  C        11.1011241301        5.3291688056       33.2785942782
  C        11.2761994283        6.1547508624       29.8639250009
  H        10.3044027829        7.6156970702       30.9963941629
  H        11.8704855100        7.1702424915       31.5832108274
  H        11.9661090865        6.0076815515       33.5145872671
  H        10.5042405919        5.2246376941       34.1714314308
  H        11.5822465309        4.3733303391       33.1507179909
  C        10.1677690643        6.0100975274       28.8349102082
  H        11.7956772242        5.2377860407       30.0243251377
  H        12.0240690817        6.8193453751       29.4580366680
  C        10.6876382363        5.7558465469       27.4011042515
  H         9.4042226245        5.3384100728       29.1458622326
  H         9.5930713701        6.8729455106       28.9322940065
  C         9.5292754051        5.0834594769       26.7323409668
  H        11.5397833875        5.1692839698       27.4203966725
  H        10.9463035426        6.7466025080       27.0032707837
  C         8.4606019917        6.0166867671       26.1376858741
  H         9.9754516319        4.7599612723       25.8606754324
  H         9.1332254038        4.2082832894       27.2641167165
  C         7.3395714957        5.2621528713       25.3023189370
  H         7.9109847776        6.5275946344       26.9534216018
  H         8.9114625967        6.7897669299       25.5277890758
  C         6.8518164122        3.9188988715       25.9888790945
  C         7.8342651260        4.4298881307       24.1813770182
  C         6.2273249521        6.1691318733       24.6047976617
  C         7.1121566011        2.7785015925       25.2598092847
  C         6.2735981600        3.6065541438       27.1920719980
  C         7.6620919367        3.0479898040       24.0487835391
  C         8.4021935108        5.0549174962       23.0702004613
  H         5.9708156792        5.5577884714       23.7123331216
  H         6.7183870314        7.0935644595       24.1356468280
  C         5.0052720407        6.4746737329       25.5292062629
  S         6.5166879277        1.3426300210       26.0020371311
  C         6.1096480222        2.2558157611       27.4218491756
  H         5.9626123624        4.4105170590       27.8772864134
  C         8.1030518057        2.4185464781       22.9529857632
  H         8.4346982063        6.1247995473       23.0106564910
  C         8.7731305678        4.3845387224       21.9159812878
  H         4.9536740311        5.8310606506       26.4127826289
  H         5.1370020842        7.3859084766       26.1112097502
  C         3.6466293899        6.4597178283       24.8205268547
  C         5.6255756823        1.6028326711       28.6864760817
  C         8.6510628093        3.0404241944       21.8236415667
  H         8.0407750843        1.3127582076       22.8427908024
  C         9.1489796444        4.7863745033       20.6531098005
  H         3.4398756603        5.5917086485       24.1525125810
  H         3.6079325599        7.2983939486       24.1574947271
  C         2.4468278303        6.7072129614       25.7834713602
  C         5.6258029775        0.1843262499       28.9382119596
  C         5.1508887998        2.3633363441       29.8180537631
  C         9.1243596292        2.3553550952       20.5430634922
  C         9.3707272873        3.6654432375       19.8605133047
  S         9.3187889017        6.3321216306       19.8663419378
  H         1.6462199587        6.9644046216       25.1591871346
  H         2.6532763789        7.5259205873       26.4245408634
  C         1.9291417103        5.4864282343       26.5572961772
  N         6.1176318327       -0.7735810396       28.0458256673
  C         5.4192310309       -0.4161043121       30.1396284967
  C         5.0976253847        1.8059303291       31.0368410313
  H         4.8782515917        3.3621805841       29.8676470496
  C         8.0313299704        1.5100662392       19.8973538458
  C        10.4306881500        1.6009063397       20.5834810029
  C         9.7313928995        4.1131372281       18.5761988783
  C         9.6581460469        5.4998446307       18.4273038796
  H         1.2107878141        4.9456141316       25.9274043879
  H         2.7492629402        4.8195647362       26.8550602217
  C         1.0622846928        5.8162742161       27.8267782988
  S         5.9616920161       -2.2869943035       28.6762533304
  N         5.4891655216       -1.8616011420       30.1181060547
  C         5.2229625862        0.3921655793       31.2939100457
  H         4.7809625578        2.5073618680       31.8291288069
  H         7.7548970192        0.6907999001       20.5787033471
  H         8.4313945154        0.8078410607       19.0778037204
  C         6.8104876559        2.2364904695       19.2318996884
  H        10.5505182318        1.2164873486       19.5685184174
  H        10.4393278658        0.7511892633       21.2662539772
  C        11.6761586637        2.4027534155       20.9231100809
  H         9.9133567391        3.4196979255       17.7640543838
  C        10.0950323202        6.1983045915       17.1681343476
  H         0.3088844813        5.0933277040       27.7578660794
  H         0.5733506508        6.8321633257       27.7920956361
  C         1.9118231445        5.6094678865       29.0708381211
  C         4.9838102350       -0.2129330420       32.5377924599
  H         6.9642604105        2.9699060867       18.4812446258
  H         6.3685526959        2.9505273097       19.9994330305
  C         5.8539616005        1.1420407764       18.7849174378
  H        11.5380877190        3.0595911430       21.7200620811
  H        11.9317272608        3.1700439726       20.2116403693
  C        12.9219921573        1.5815979841       21.2297301846
  C        10.1179282042        7.6356021211       16.9626825090
  C        10.2724973425        5.4204191397       15.8713920768
  H         2.3672079324        4.6106060778       29.1305319393
  H         2.8532253557        6.1727300239       28.9298023422
  C         1.1791764582        5.9455060274       30.3185908934
  H         5.0200459436       -1.3439342130       32.5041897667
  C         4.5448041455        0.3392976099       33.7578596182
  H         5.9056202727        0.4009443484       19.6914104982
  H         6.1162390949        0.6564310478       17.8380356062
  C         4.4368426597        1.7984631091       18.7396829595
  H        12.6696399095        0.8147756493       21.9690172484
  H        13.3010506667        1.0658819388       20.3876299248
  C        13.9290427174        2.4943648653       21.8836487988
  N         9.9937507936        8.4922599222       18.0543717237
  C        10.4145320036        8.2868870733       15.7439514527
  C        10.4950634594        6.0920532558       14.6525462775
  H        10.1326430954        4.3332981042       15.8380791195
  H         0.8205685672        6.9923269714       30.3910184449
  H         0.3509759876        5.3001368147       30.3542001745
  H         1.8328656355        5.7594869826       31.2315414064
  S         4.3246611183        1.9606492678       34.1548722600
  C         4.4291657001       -0.6205571538       34.8790831313
  H         4.2390985050        2.2654232621       19.6928148838
  H         4.3486452797        2.4449800398       17.8926659158
  C         3.2437806642        0.8397072742       18.6287290585
  H        13.4005918504        3.1064306768       22.6615615405
  H        14.2060542991        3.1134102455       21.0476629006
  C        15.1907311777        1.8075676288       22.4409934800
  S        10.1172850026       10.0272680555       17.4429895288
  N        10.5732783600        9.6440468518       15.9017114244
  C        10.6320218887        7.5756237807       14.5838496784
  H        10.4617879042        5.5060589794       13.7455995863
  C         3.9490775988        1.3788390123       35.7354237668
  N         4.0548906502        0.0756957235       35.9320307838
  O         4.5399719042       -1.8161881756       34.7583125020
  H         2.3663966011        1.5007082092       18.7593626448
  H         3.1512096410        0.1737632503       19.4868402914
  C         3.0543784512       -0.0171861074       17.3660111028
  H        14.8083462459        0.9890844120       22.9894964815
  H        15.7114292554        1.4612303102       21.5366071969
  C        16.0025065571        2.7196264579       23.4068167740
  C        10.8587243347        8.3331376278       13.4286916719
  S         3.5410012232        2.4228614032       37.1101464861
  C         3.9639337177       -0.5902240457       37.2161985555
  H         3.4545852162        0.4638837346       16.3975516298
  H         3.7270827531       -0.8383048709       17.6048325194
  C         1.6097872415       -0.4297642436       17.2025483671
  H        15.4771747667        2.8522313810       24.3397717243
  H        16.0528342054        3.7084399433       22.9381709919
  C        17.4999228997        2.2488621352       23.6283750488
  H        10.4230005464        9.2741571223       13.3717955939
  C        11.4017325463        7.9930515186       12.1988396417
  H         3.4275845596       -0.0341268021       37.9795894128
  H         3.4194485144       -1.5482352500       37.0121495076
  C         5.3656849660       -0.8171386075       37.9342337787
  H         1.2416038778       -0.5057132857       16.2111668034
  H         0.8964718694        0.2010475192       17.6917613417
  C         1.5335087240       -1.8157107180       17.8012281484
  H        17.8572783445        2.8692774023       24.5139655241
  H        17.5656874460        1.2073438023       23.9467253038
  C        18.3956208769        2.5105389583       22.3762567410
  S        12.0958103373        6.3974882280       11.8106714597
  C        11.4906657637        8.9781138560       11.1279955974
  H         5.2106373954       -1.7166123485       38.6245176321
  H         6.1087230527       -0.8768320811       37.1849896679
  H         5.7531187667       -0.0451483604       38.5163053830
  H         0.4847275836       -2.0618689335       17.7767154401
  H         1.7688289036       -1.8952744988       18.9063399153
  H         2.0449767427       -2.5628806108       17.1775575187
  H        19.1814617257        1.7369417034       22.3283019196
  H        18.9395065872        3.4901164592       22.4214245389
  H        17.7804388497        2.4311534551       21.4699880719
  C        12.3171560992        7.1218668603       10.1989759282
  N        12.0942856313        8.4430768785       10.0632840239
  O        11.0251571776       10.0737014176       11.3143276336
  S        12.6814709443        6.3351166367        8.6759672053
  C        12.2647181080        9.2821417111        8.8697210586
  H        12.3856629480       10.2855526545        9.1876617629
  H        13.1409587623        9.0181822358        8.3080483714
  C        11.0186673958        9.1453383998        7.9404223300
  H        11.1643919325        8.3942563730        7.1765462533
  H        10.0553512255        9.0163227598        8.3533626498
  H        10.9371165018        9.9715989150        7.2151070594
  H        -3.6529613747       13.0535344112       16.5568791619
  C        -2.7602521361       13.6222079552       16.5747653785
  H        -2.0057170523       13.0035916813       17.1300166363
  C        -2.9650682351       14.7570823931       17.5987791614
  C        -2.1257403021       14.0289191688       15.2835035591
  C        -3.3700613502       14.2384084684       18.9794587869
  H        -2.0644520632       15.3614859208       17.7032496972
  H        -3.8136976268       15.4379371750       17.2898660918
  H        -2.6860674428       14.9151940043       14.9813334099
  H        -1.0991071876       14.4290253864       15.4907365393
  H        -2.1389426792       13.2452353877       14.5973948811
  C        -2.2353841574       14.2647628234       20.0464203261
  H        -3.6135309620       13.2215042478       18.6923423140
  H        -4.2188450647       14.7620794351       19.2861356520
  C        -2.6406512563       13.7705604168       21.4838450457
  H        -1.4017255728       13.6320627529       19.6544689287
  H        -1.6670931707       15.2268004241       20.0558795644
  C        -1.4577371978       13.0590555163       22.2065543640
  H        -3.4008703977       12.9993463833       21.2677212868
  H        -3.2205569068       14.5980308187       21.9914610529
  C        -0.3582047297       14.0985008550       22.6677839946
  H        -1.8809624031       12.4035548901       22.9214719815
  H        -0.9804640038       12.3391830613       21.4910700609
  C         0.8161800744       13.4172507725       23.5143340803
  H         0.1083595241       14.6445966618       21.7919896918
  H        -0.8933973578       14.8313739815       23.2662801287
  C         1.2497897604       12.1155169494       22.8032511201
  C         0.4043151723       12.6443959846       24.7045141553
  C         2.0749183543       14.2928918439       23.7456059163
  C         1.0262268115       10.9674866679       23.5679341746
  C         1.8224594824       11.7323219995       21.5700893859
  C         0.4601837501       11.2869458181       24.7639836417
  C        -0.0309510432       13.2699048556       25.8580172344
  H         2.4114714820       14.7909193011       22.8472343515
  H         1.8360136304       15.0202893073       24.5321971758
  C         3.2705988369       13.6033332275       24.3573035792
  S         1.4004662402        9.4731641336       22.7044788629
  C         2.0392533026       10.4172591693       21.3908297217
  H         2.1412794767       12.4623953824       20.8387031173
  C         0.0768996949       10.6374979345       25.9224976516
  H        -0.0830321350       14.3146001803       25.8697362161
  C        -0.3967931181       12.6168494223       27.0045058157
  H         3.4167589302       12.6019695993       24.0232687032
  H         3.1137943999       13.4539380559       25.4264435249
  C         4.5898875790       14.3997707139       24.1725476009
  C         2.4961216377        9.6964254305       20.1225329044
  C        -0.4044217865       11.2498598974       27.0794793505
  H         0.1472215824        9.5841909924       25.9519433493
  C        -0.7597262059       12.9880851003       28.2583482753
  H         5.3231435705       14.0124291305       24.8572729084
  H         4.4886843078       15.4155964717       24.4544732401
  C         5.0662834171       14.4810214115       22.6591032354
  C         2.3705267757        8.3293835152       19.8790607728
  C         3.0284352056       10.5004096464       18.9795786940
  C        -0.8436691196       10.4844009226       28.2594381768
  C        -0.9930879465       11.8377850921       29.0154639047
  S        -1.1081802369       14.5079235006       29.0192082773
  H         5.9596392957       15.0935183126       22.6779324764
  H         4.3379779620       15.0343902429       21.9960398371
  C         5.6610403098       13.1934930339       22.0881608032
  N         2.1363254248        7.3619063612       20.9206059185
  C         2.7598535277        7.7254861464       18.6917462273
  C         3.1979491686        9.9217259081       17.6935340015
  H         3.1318060322       11.6380339825       18.9725720689
  C         0.3611957982        9.7673168743       28.8224727717
  C        -2.0589562527        9.6387882372       28.1675551476
  C        -1.4520438707       12.2455776823       30.2778177109
  C        -1.4682650873       13.6038799138       30.4401654006
  H         6.2828638245       12.6706774203       22.7917258381
  H         4.7806059994       12.5148047046       21.8241623241
  C         6.5427627851       13.2755189756       20.7125466380
  S         2.1239153590        5.8849275869       20.2549594352
  N         2.7250039403        6.3203644720       18.8360250514
  C         3.1814819808        8.4052028132       17.5801323770
  H         3.5228660610       10.5143979070       16.9006247018
  H         0.6325212855        8.9204200407       28.1973043231
  H         0.0966897554        9.2626609225       29.7059052603
  C         1.6404603101       10.6132621872       29.1670161817
  H        -1.7522004479        8.7664503288       27.7143906454
  H        -2.4734819247        9.3721748620       29.1283633617
  C        -3.1810600280       10.3836445702       27.2851962844
  H        -1.7465044252       11.4441449106       30.9762056244
  C        -1.8447053703       14.2799081475       31.7581126752
  H         7.3633818090       12.5186997035       20.5816160723
  H         7.1891953200       14.1655321809       20.7498515433
  C         5.7552176089       13.3815154956       19.4111065826
  C         3.4535628850        7.7088416861       16.3986578888
  H         2.2329313069       11.0313586313       28.2674105299
  H         1.4531765145       11.4871093239       29.8199763297
  C         2.6030532415        9.8065366077       30.0848571430
  H        -2.8062187371       10.6028094238       26.3736074849
  H        -3.4791544373       11.3293535039       27.6992878818
  C        -4.5940505634        9.7043680402       27.1232518434
  C        -1.8663668202       15.7066625548       31.9548301378
  C        -2.0588807292       13.5280987253       33.0215442909
  H         5.2704098825       12.4064962599       19.3142412363
  H         4.9356090256       14.1759375073       19.4682581053
  C         6.6245521136       13.4034970460       18.1255772251
  H         3.4704611429        6.6146078747       16.4596877059
  C         3.6741408613        8.1574783556       15.0940097872
  H         2.6880445182        8.7883979899       29.6268583203
  H         2.1467845498        9.6427775525       31.0665377708
  C         4.1331962309       10.2145076685       30.1279391223
  H        -4.4556562488        8.7169027094       26.7444398290
  H        -4.8830413558        9.4881141413       28.1740538651
  C        -5.5328929045       10.4084798861       26.2567590663
  N        -1.6573659646       16.6512386484       30.9953597444
  C        -2.1328583503       16.3138309453       33.1651094344
  C        -2.3472040492       14.1215560434       34.2248073454
  H        -1.9347159314       12.4850103215       33.0871328249
  H         7.7220445690       13.3546054674       18.4466397853
  H         6.4404587846       12.5713502465       17.4673464465
  H         6.5973843265       14.3617497305       17.5667104073
  S         3.9278769003        9.7608072139       14.5367649192
  C         3.7651928576        7.1114983467       14.0504396225
  H         4.3215432020       10.9710518384       29.3315333375
  H         4.3578118387       10.7799268872       31.0622776569
  C         5.1781637555        9.0847645821       29.8720338274
  H        -4.8505682413       10.8205207683       25.4629392047
  H        -5.8675432104       11.2888873492       26.7177480260
  C        -6.7268236636        9.5467939606       25.8449293188
  S        -1.7554213768       18.1607257983       31.5818700408
  N        -2.1627338127       17.7035021736       33.0932620999
  C        -2.4967082580       15.6246464490       34.3662591935
  H        -2.3735537165       13.5270496818       35.1394805353
  C         4.0574835520        8.9886927967       12.9109806165
  N         4.1284322162        7.6811386777       12.8603214592
  O         3.5175277373        5.9651312616       14.2536759007
  H         6.2108943730        9.3969980736       29.6884357886
  H         4.9105533690        8.6878737872       28.8892585086
  C         5.2251421463        8.0703124487       31.0663877149
  H        -6.4451191634        8.8057197660       25.1469137757
  H        -7.1475179079        8.9686744446       26.6751149657
  C        -7.8849917812       10.4080494722       25.3278548509
  C        -2.8279427022       16.4030837712       35.5558337483
  S         4.3627937992        9.8390560269       11.3814175910
  C         4.1288098512        6.8831998048       11.6449144572
  H         5.4439777911        8.6290699067       31.9850843605
  H         4.2708240035        7.5411389788       31.2799510555
  C         6.3870453825        6.9609515892       30.8062889343
  H        -7.6930725629       10.5941244870       24.2623412575
  H        -7.8297298675       11.3642202215       25.7856317924
  C        -9.1832307120        9.7532809084       25.6631197054
  H        -2.4681935629       17.3995070601       35.5845358557
  C        -3.2622522580       15.9649509633       36.7864471574
  H         4.7807975793        7.1562965288       10.8331030248
  H         4.5826830825        5.9960788691       12.0110028239
  C         2.7144156429        6.4644662091       11.2155296809
  H         7.0723555530        6.8685971699       31.6584256671
  H         7.1000646157        7.1681414269       29.9582248258
  C         5.8129333482        5.5532253567       30.4391875984
  H        -9.9096721718       10.0328682691       24.9138871240
  H        -9.0338017640        8.6521455424       25.7144524084
  C        -9.5780575434       10.1790997980       27.0384804537
  S        -3.8240714092       14.3753870056       37.1796891938
  C        -3.4997149169       16.9062969146       37.8297053333
  H         1.8400648821        6.8550677993       11.6835305285
  H         2.4262134546        6.4670559744       10.1234861576
  H         2.4411984255        5.4095952119       11.5220315603
  H         5.1512161038        5.1722542522       31.2175669760
  H         6.6031624453        4.7825471506       30.3312857815
  H         5.2476763732        5.6370397073       29.5252268126
  H       -10.1573976479        9.4003705208       27.6243012383
  H        -9.9654171567       11.2300240919       27.0112079353
  H        -8.6588257390       10.3951765909       27.6426828339
  C        -4.3139211221       15.0231669392       38.6979502563
  N        -4.1050947644       16.3132780621       38.8490443363
  O        -3.1529233221       18.0729949610       37.6835226009
  S        -5.1813725061       14.1100840053       39.9889019484
  C        -4.2934001363       17.0544052974       40.0851328164
  H        -4.4336640233       18.0710812543       39.8154363671
  H        -5.0287242744       16.7103243592       40.7653102460
  C        -3.0254896855       17.0289735277       40.8768831104
  H        -2.1874649975       17.3654742100       40.3209730037
  H        -2.9966819621       17.7249430839       41.6489713902
  H        -2.8628039100       16.0462306837       41.2676599582
