352
 i =    53500, time =    53500.000, E =        24.7331900928
  H        12.3950681522        5.3935581097       32.5643178444
  C        11.3356382906        5.5264380673       32.5950967494
  H        10.9056570457        4.6102575935       32.3611120283
  C        10.6392284449        6.5139164601       31.5905212356
  C        10.8693923836        5.8481078346       33.9856673873
  C        11.1782159341        6.3272529625       30.1656015345
  H         9.5723639522        6.3572590223       31.6813162452
  H        10.9099460194        7.6047904025       31.8157286544
  H         9.9279763068        5.4004160147       34.0310915851
  H        11.5923799299        5.4724390019       34.7333873487
  H        11.0151862062        6.8577249161       34.1875628850
  C        10.0646045148        5.9020326950       29.2601382510
  H        11.9139622561        5.6290947409       30.1828163571
  H        11.5713798075        7.2374771662       29.6900566681
  C        10.5537876133        5.8634225850       27.7687035244
  H         9.6784145055        4.9532233465       29.5967472499
  H         9.2911237953        6.5728039556       29.5308796875
  C         9.6553521668        5.1838804874       26.7665172332
  H        11.5339951875        5.3148684918       27.6531558855
  H        10.7718566067        6.9243647898       27.5344645159
  C         8.4140458281        5.9872521548       26.4962098483
  H        10.1944915847        5.1241295773       25.8089130748
  H         9.3639367554        4.2975665780       27.2835477136
  C         7.3179414798        5.2824818510       25.6767491149
  H         8.1185696364        6.1644548819       27.5228601829
  H         8.6609581924        6.9116118901       26.0134380469
  C         7.0236987152        3.8846938835       26.2930692309
  C         7.8808112249        4.6186985819       24.4477940900
  C         6.0526935769        6.1050926011       25.5729399437
  C         7.2623485434        2.8209071614       25.4580838933
  C         6.4021577360        3.4866699008       27.5459384759
  C         7.8270680189        3.3023062313       24.2693649604
  C         8.1481722130        5.3506419170       23.2942951366
  H         6.0945018822        6.8821132109       24.8685304047
  H         5.8142032386        6.5671820034       26.5300901187
  C         4.7403743449        5.4517882756       25.1367347541
  S         6.8935044827        1.3158417310       26.2075040504
  C         6.3775075583        2.1288880500       27.6501386957
  H         6.1246093639        4.2620856649       28.2152438108
  C         8.1714800606        2.6897145002       23.0578423285
  H         8.0024353766        6.4117747016       23.2381499393
  C         8.5365579466        4.7397064009       22.1132493009
  H         4.8754325548        5.1264764826       24.1120385729
  H         4.4461606854        4.5715640051       25.7052740648
  C         3.5308538935        6.3320182888       25.2697985534
  C         5.9435505964        1.3881920024       28.8941769058
  C         8.6229475689        3.4078057071       21.9776895889
  H         8.0093274741        1.6538237765       22.8211172341
  C         8.9232287402        5.1117228167       20.8444025241
  H         2.7713710525        5.7758322687       24.8386348803
  H         3.6520074818        7.2163081762       24.7189265397
  C         2.9150531059        6.5819063345       26.5958507888
  C         6.1239864905        0.0414695203       29.2041177312
  C         5.2975802837        2.2463940706       29.9248028650
  C         9.0228701569        2.7381054977       20.7509211700
  C         9.1549085802        4.0551756029       19.9930067916
  S         9.1553224880        6.6021379001       20.0315550610
  H         2.4545602524        7.5837927531       26.5534941348
  H         3.7246252928        6.5912712981       27.2833183392
  C         1.9012550537        5.4026496691       26.9062430515
  N         6.5190844890       -0.9769460471       28.3014367836
  C         5.8224497267       -0.4243975181       30.4394702021
  C         5.0551147912        1.8181077683       31.2536830425
  H         5.0641552268        3.2668226938       29.6557859875
  C         7.9410188753        1.9126668487       19.9758729849
  C        10.3703912037        2.0111875988       20.7998664993
  C         9.5602617417        4.4466573735       18.7375418005
  C         9.4451216998        5.7897291041       18.5226828742
  H         1.0887529967        5.3685093507       26.1726542673
  H         2.3973351344        4.4266880562       26.6823612145
  C         1.3336236926        5.3803528401       28.3252796978
  S         6.5971835613       -2.3713654933       29.0801007299
  N         6.1321102279       -1.7796670461       30.5321889898
  C         5.3689876939        0.3562036976       31.5608116266
  H         4.5946019162        2.5523886691       31.9337155859
  H         7.7038700754        1.1015687788       20.5869706019
  H         8.3481187644        1.5723289596       19.0039305159
  C         6.5884347549        2.5859726316       19.7318445189
  H        10.6325067114        1.5631087235       19.8620484484
  H        10.1545809686        1.2110072102       21.5647022100
  C        11.6177719854        2.6535772952       21.2724071810
  H         9.7583360714        3.6800299286       18.0101010802
  C         9.7975845831        6.5364451218       17.2788772945
  H         0.6774573786        4.5262921388       28.4735321260
  H         0.5882389610        6.1728546338       28.4114275776
  C         2.3175472155        5.4181212780       29.4880763660
  C         5.2872776038       -0.2769716359       32.8209848240
  H         6.7108494959        3.5033940593       19.2081247235
  H         6.1331000321        2.7450942860       20.6707055713
  C         5.5206625232        1.8096696395       19.0437021880
  H        11.4314030184        2.8856327845       22.2547783474
  H        11.9195392749        3.5594399610       20.6949089501
  C        12.6858306566        1.5428121950       21.2976025595
  C        10.0494177366        7.9317981635       17.1290780094
  C         9.8825364520        5.8136732133       15.9668407120
  H         2.9475878223        4.5854465071       29.7031856753
  H         2.8562720289        6.3203546251       29.3158251785
  C         1.5087567431        5.6062995694       30.8052706092
  H         5.6535860732       -1.3091867624       32.8593952864
  C         4.9119613030        0.1346238082       34.0734473465
  H         5.1379458279        1.0510305136       19.6889765682
  H         5.9351305070        1.3216704687       18.1831228850
  C         4.3619514815        2.6837332609       18.5796940961
  H        12.5299428236        0.9237490025       22.1546286625
  H        12.6215778211        0.8986125113       20.4392677236
  C        14.0633671367        2.2045264168       21.1689241941
  N         9.8615084793        8.8842050841       18.2176492700
  C        10.3787390384        8.5213353718       15.9077576231
  C        10.2805405199        6.4073276078       14.7397987908
  H         9.5640510123        4.8174979498       15.9530194202
  H         1.8718305020        6.4305033689       31.3971682189
  H         0.4649356585        5.7204651963       30.5591352465
  H         1.7039500409        4.6891429581       31.3889742012
  S         4.3892262756        1.7450155641       34.5178838475
  C         4.8653395185       -0.8726586828       35.1423258638
  H         4.2400734789        3.6168308964       19.2086423187
  H         4.5633707711        3.0926899009       17.5572078293
  C         3.1193525656        1.8769477784       18.5060654931
  H        14.1104971222        2.8847191154       20.2862584210
  H        14.7881375418        1.4223969975       20.9702229882
  C        14.5711213865        2.9296606095       22.3890508674
  S         9.8320328799       10.3099295776       17.5648738400
  N        10.3420304188        9.9334403705       16.0202049882
  C        10.5060056215        7.8616894375       14.6770182744
  H        10.2567193170        5.7847367054       13.8451170800
  C         4.2591945344        1.0902456129       36.1905930215
  N         4.5734662459       -0.2514286595       36.3212376560
  O         5.2154317916       -2.0306622565       34.9693605673
  H         2.2275711931        2.4080058268       18.2929712646
  H         2.8937400970        1.5177902727       19.5470896967
  C         3.1564492733        0.6673169454       17.5674014659
  H        15.1437335784        3.8377981151       22.1319414170
  H        13.7580703932        3.2232999322       23.0214353109
  C        15.7102262160        2.1341999428       23.1256296778
  C        10.8642764485        8.6388049898       13.5665639691
  S         4.0100459919        1.9843758931       37.6795598485
  C         4.7099371585       -0.9342859141       37.6096756882
  H         2.6672195962        1.0053020925       16.6957180597
  H         4.1679413671        0.4362160412       17.3008376125
  C         2.5532423475       -0.6647788942       18.1088480806
  H        15.3606010001        1.1552835925       23.3418637544
  H        15.9019659249        2.5457330918       24.1288524990
  C        16.9286626443        1.8442111377       22.2905137185
  H        10.9611392175        9.7487256580       13.7645422245
  C        11.2781990365        8.3093525454       12.3270737269
  H         4.2408235966       -0.4505852266       38.5027107491
  H         4.1427210818       -1.8654227943       37.5101950297
  C         6.1847257303       -1.1476908011       37.8514928673
  H         1.4545599438       -0.6045904595       18.2750599634
  H         2.9793915012       -0.9477515290       19.1208660945
  C         2.6808903121       -1.7708616338       17.0828780777
  H        16.7328947149        0.9053010405       21.8398059445
  H        17.1221149368        2.6152158755       21.5753572252
  C        18.1373868047        1.6627143685       23.1518044219
  S        11.5613352328        6.8102665768       11.6048910580
  C        11.5302842408        9.4511586082       11.3911841578
  H         6.1620613458       -1.6885183200       38.8861617639
  H         6.9159046887       -1.8239808216       37.2421529542
  H         6.5910828605       -0.1991108508       38.0394418829
  H         2.6337216533       -1.3927837375       16.0557264051
  H         1.9123564468       -2.5150344286       17.3210191126
  H         3.6120514987       -2.3623084727       17.1690082701
  H        18.0271797685        1.2725932780       24.1450184396
  H        18.6099470030        2.6502716703       23.1367357654
  H        18.8059288263        1.0104500501       22.5632860964
  C        11.8518586056        7.6192610735       10.0537234810
  N        11.8984476880        8.9620220207       10.2045385809
  O        11.4006788946       10.6670244669       11.6831340640
  S        12.5792129455        6.8384937420        8.6071848483
  C        12.3288264174        9.8407136960        9.1401504659
  H        12.6746924857       10.8047650791        9.5825346403
  H        13.2082214760        9.4873122188        8.6484017856
  C        11.2139870265        9.9898098271        8.1457780002
  H        10.3393391746       10.1511508547        8.7128481001
  H        11.3899539277       10.8567016826        7.4329175308
  H        11.1330359855        9.0535215429        7.5242267408
  H        -1.8254082634       12.5841979036       17.1878623286
  C        -1.8787487937       13.6351078861       17.0226421811
  H        -0.9306554245       14.0955491504       17.3023066753
  C        -3.0242020826       14.3019260577       17.5906944698
  C        -1.7830220590       13.7134021599       15.4788467987
  C        -3.1830932788       14.0672649500       19.0702843366
  H        -2.8810407036       15.3623374298       17.4608226939
  H        -3.9455247349       14.0691065538       17.0585886799
  H        -0.9390856306       14.1549478785       15.0417710579
  H        -1.8088018435       12.6160297365       15.1672538178
  H        -2.6380257455       14.2402641182       15.0729644836
  C        -1.9667957840       13.7459850136       19.8871783848
  H        -3.8989785328       13.2892774797       19.1529896988
  H        -3.6315816525       14.9779960056       19.4835460554
  C        -2.3312076371       13.2927609675       21.3384504227
  H        -1.4528309576       12.9900756902       19.4843667849
  H        -1.1699892060       14.4705937485       19.7767159795
  C        -1.1501925009       12.7210189612       22.1835915216
  H        -3.2106479362       12.6041198816       21.3345164050
  H        -2.6382587261       14.1948889579       21.9296794151
  C        -0.0424668905       13.7213902469       22.5100660920
  H        -1.5293390107       12.1746660484       23.0118371064
  H        -0.6886131293       12.0339354002       21.5351565543
  C         1.1206219089       13.1144117658       23.3255116327
  H         0.3539950900       14.2316754304       21.6777213496
  H        -0.4268080505       14.5028917992       23.1226124449
  C         1.6363395492       11.8112868870       22.6610632016
  C         0.6907563543       12.4228920842       24.6074641837
  C         2.2989709510       14.0393664711       23.5891855564
  C         1.3866258939       10.7541825903       23.4383667362
  C         2.2189014885       11.5426582129       21.3906832802
  C         0.7840053076       11.0203260136       24.6761565799
  C         0.2869687502       13.0213769121       25.7484422549
  H         2.5925827651       14.6027846372       22.6939383308
  H         2.1047064900       14.9085471330       24.2780362351
  C         3.5813378166       13.2283373905       24.0954009377
  S         1.8900563940        9.3235758535       22.7045307398
  C         2.3060793612       10.1785874485       21.2724724248
  H         2.4791892715       12.3744371618       20.7572338049
  C         0.4998870336       10.3690128278       25.8594826478
  H         0.1622234665       14.1011515281       25.7554729905
  C        -0.0910239913       12.3530135892       26.8848855658
  H         3.9501101336       12.6385474506       23.2315988065
  H         3.4040410598       12.4467915186       24.8304275152
  C         4.7183425836       14.1124730145       24.5756772647
  C         2.7314324668        9.5054369906       19.9999318624
  C        -0.0510568988       10.9692833802       26.9736649711
  H         0.5002039639        9.2266989829       25.9676853082
  C        -0.4450475369       12.7162460648       28.1668855582
  H         5.2806894053       13.6302303467       25.4036421091
  H         4.2966762209       14.8694582881       25.1076148821
  C         5.7428702933       14.6116655739       23.4693057772
  C         2.6399133114        8.0645374356       19.6834431096
  C         3.1111650135       10.3342941042       18.8673866222
  C        -0.4202497022       10.2959654463       28.2494040382
  C        -0.6677651542       11.6196988369       28.9437762702
  S        -0.7591602598       14.2827803825       28.9407216168
  H         6.4148417731       15.4067456318       23.8239624067
  H         5.2050629675       14.9886761802       22.6146314929
  C         6.6373185777       13.4932752047       23.0816446434
  N         2.3449900001        7.0924760605       20.5913501797
  C         3.0109063217        7.5099807090       18.4870452663
  C         3.2660998927        9.7647081893       17.5966382320
  H         3.3139790067       11.3463767833       18.9765162495
  C         0.7014742451        9.5302662120       28.9822613285
  C        -1.6675119065        9.4554743921       28.0100827692
  C        -1.0806124036       12.0476121585       30.2140307402
  C        -1.1561326551       13.4541673813       30.4008927133
  H         7.3182000651       13.3073154953       23.8787969158
  H         6.1263886315       12.5298505293       23.0939649299
  C         7.3837110710       13.6789560597       21.7719328900
  S         2.3040379581        5.6208329815       19.8610221819
  N         2.8826980762        6.1263993027       18.4741613380
  C         3.3748375010        8.2759424918       17.3188544906
  H         3.4413855830       10.5360002332       16.8013668973
  H         0.9594843892        8.6444845668       28.4391326709
  H         0.2282979207        9.2064011601       29.8910924669
  C         1.9920251764       10.2777083022       29.4002900459
  H        -1.6570123967        8.9851406428       27.0093655374
  H        -1.7552216693        8.6852060490       28.8716959236
  C        -2.9712072475       10.2346994473       27.9263395397
  H        -1.3231990207       11.3076884323       30.9443769644
  C        -1.4854966853       14.1565274665       31.6691241498
  H         8.2662931297       13.0621086322       21.7890439458
  H         7.6337683998       14.7761300153       21.7162916157
  C         6.5663028431       13.1929902093       20.6339317773
  C         3.6513631964        7.6481506737       16.0572596882
  H         2.4010228033       10.8562885365       28.5599967869
  H         1.8126161940       11.0566305382       30.1700806888
  C         3.0738571208        9.3014068072       29.9587104448
  H        -2.8555264168       11.0868897624       27.2188427042
  H        -3.1695059466       10.7684065274       28.8639505789
  C        -4.1228401679        9.4039528094       27.5513377197
  C        -1.5376762478       15.5168221016       31.8462162705
  C        -1.6495450909       13.3941394963       32.9544151787
  H         6.7268704328       12.1553873095       20.5332386153
  H         5.5395337710       13.1300727534       20.8998459444
  C         6.8223947287       13.8425121113       19.3219404146
  H         3.6541600372        6.5777289491       16.0578396932
  C         3.8413094632        8.1711347792       14.7908450769
  H         3.2671061206        8.5396732933       29.2329581881
  H         2.5957442413        8.7107128498       30.7407959930
  C         4.3126413649       10.0726311128       30.4353508878
  H        -3.8570963324        8.9853121083       26.5997519634
  H        -4.3042629453        8.5815699495       28.2290008551
  C        -5.4728596803       10.1032454539       27.4199605772
  N        -1.3380146440       16.3837500428       30.7782026706
  C        -1.8239077277       16.1593918590       33.0451655298
  C        -2.0034345975       13.9826411756       34.1425958289
  H        -1.6720781398       12.3315562094       32.8885426026
  H         6.9408819866       14.9315259742       19.3120582473
  H         7.8050715030       13.5256163516       18.7571076947
  H         5.9748406747       13.6626914774       18.7282828853
  S         4.1128877960        9.8605884343       14.3641942249
  C         3.8787609649        7.2452070914       13.6795147467
  H         4.4770376763       10.8345938200       29.7074056636
  H         4.3539052055       10.5927538980       31.3827802781
  C         5.4427675407        9.0723702681       30.2638707760
  H        -5.4830585310       10.9956585296       28.0791791375
  H        -6.2937476943        9.4343505492       27.7457016672
  C        -5.8023379796       10.5757806971       25.9755502749
  S        -1.2465285517       17.8490960828       31.3347424057
  N        -1.6495370519       17.5669567870       32.9057229384
  C        -2.0239982829       15.4641743202       34.2801092324
  H        -2.1690892088       13.3028347222       34.9337985723
  C         4.1318892032        9.2474466414       12.7261444154
  N         4.1531364803        7.8991395153       12.5174700175
  O         3.7524142678        6.0547931462       13.8049993478
  H         6.3420958074        9.6194153752       30.5529346826
  H         5.6690400649        8.8371195645       29.1795506571
  C         5.3796293342        7.7848996173       31.0778178537
  H        -5.0710539998       11.3664089164       25.7063451028
  H        -5.7656970584        9.7204886529       25.3088263412
  C        -7.2728496877       11.0268497497       25.8885567089
  C        -2.1915038343       16.2324627094       35.5059034785
  S         4.6597656695       10.1130861770       11.3161270024
  C         4.2416302373        7.2158131419       11.2717710843
  H         5.7327465379        7.9466246538       32.1204012886
  H         4.3825638670        7.4991984389       31.3551405552
  C         6.2128231619        6.6673155055       30.4124834712
  H        -7.3152865750       11.5631595447       24.9692910656
  H        -7.4526533212       11.6923349965       26.6731115048
  C        -8.2902434930        9.9075877742       25.7723349376
  H        -2.1364040550       17.3304599720       35.3270807488
  C        -2.6625858290       15.8770799747       36.7507341985
  H         4.7971938688        7.6558703514       10.4720202326
  H         4.7818671446        6.3017797630       11.4012213145
  C         2.8062599306        7.0032578002       10.7566383247
  H         7.2264232294        6.9396933150       30.4122165787
  H         5.9202885475        6.6874291214       29.3488156614
  C         6.0419730796        5.2902761798       31.1184756407
  H        -7.9277242405        9.1373623456       25.0168130238
  H        -8.4964961226        9.4440748586       26.7529564696
  C        -9.5966117441       10.4687276366       25.2707046785
  S        -3.3764796194       14.3187205960       37.1734065498
  C        -2.7414592751       16.9126413369       37.8153755937
  H         2.5420111283        6.0308504705       10.2303657595
  H         2.1207258726        7.2287147135       11.5697383154
  H         2.5675431053        7.7338354415        9.9913236172
  H         6.1769812260        5.5199925702       32.1837979102
  H         6.7342102332        4.6112461444       30.6680203089
  H         5.0196309250        4.8448814493       30.9854089051
  H        -9.6633476348       11.5169502695       25.5846950320
  H       -10.3867880250        9.9458568693       25.8322042978
  H        -9.7670786364       10.4161736903       24.1922523392
  C        -3.5172603073       14.9948967090       38.7814541693
  N        -3.3146322463       16.3391347573       38.8809417430
  O        -2.4583073598       18.1294015065       37.6693471283
  S        -4.4172673342       14.2026287576       40.1450236024
  C        -3.4446180711       17.1682865107       40.1323835014
  H        -3.4638084631       18.2398796556       39.8786177685
  H        -4.3952783138       17.0059050802       40.5534632891
  C        -2.4416879497       16.7956614842       41.1672167204
  H        -1.7454844699       16.0467586378       40.7106502269
  H        -1.8263197864       17.6883441963       41.4763091178
  H        -2.8639614930       16.2389581396       42.0586321828
