352
 i =     4100, time =     4100.000, E =        35.6552450565
  H        12.2834784645        6.7392796673       32.2470145417
  C        11.4276459311        6.0290521741       32.2347700933
  H        12.0236728376        5.1123575455       32.2157854163
  C        10.3416471640        6.1075420699       31.2020491677
  C        10.7439906260        6.2648467667       33.6032463202
  C        10.8511554781        5.7921822838       29.8213275955
  H         9.4512358453        5.5281891618       31.5085975343
  H        10.0001621173        7.1551559061       31.1731107894
  H        11.4403602528        6.8416324666       34.2595171218
  H         9.8042580236        6.8136723980       33.5491263846
  H        10.4338806597        5.3364215396       34.0854991781
  C         9.7380719203        5.8440207708       28.8266260083
  H        11.1979356437        4.7896338177       29.7781385527
  H        11.7308833852        6.3753802366       29.4403203681
  C        10.3136100012        5.5344459516       27.4311965408
  H         8.7982716943        5.2549787839       29.1424741093
  H         9.4587392745        6.8834170216       28.7407229282
  C         9.2942834703        4.9042310982       26.4815089590
  H        11.2424259300        4.9900421879       27.4301388387
  H        10.5044301046        6.5083729281       27.0203712807
  C         8.1601658293        5.7925000471       26.0812558787
  H         9.7425396624        4.5444787767       25.5847096997
  H         8.8277170257        4.0187029641       26.9729673448
  C         6.9576369419        5.1638811666       25.3656445790
  H         7.6981463212        6.1161422432       26.9909041257
  H         8.3468420425        6.7094502455       25.6334315799
  C         6.6623282067        3.8616885389       26.0407884410
  C         7.3253842305        4.4754408351       24.1318646266
  C         5.8646027531        6.1591735017       25.2581163630
  C         6.9528238865        2.7252762336       25.2224391680
  C         6.1084485710        3.4889485099       27.2683479195
  C         7.3394878442        3.1337638898       24.0058403972
  C         7.7346059486        5.1098104795       22.9270565642
  H         6.1435369857        7.0381521152       24.6436474634
  H         5.6686973251        6.6515821304       26.1620855305
  C         4.5054519955        5.5097965234       24.9076731080
  S         6.6871081888        1.2630738667       26.0171241597
  C         6.0133740239        2.1130881354       27.3408103708
  H         5.7751220669        4.1650362593       27.9964748825
  C         7.7174323258        2.4121141525       22.8750395102
  H         7.7663086201        6.1595020358       22.9179278210
  C         8.0535073237        4.3976297101       21.7228644958
  H         4.4044675710        5.0631875112       23.8973610982
  H         4.2914511372        4.6376622249       25.4653457533
  C         3.3348692618        6.4407165534       25.0900559089
  C         5.5595170734        1.4707001622       28.6571413773
  C         8.1073221545        3.0716068988       21.7137099795
  H         7.4237033849        1.3853357844       22.9080875983
  C         8.5418512925        4.7834284735       20.4811111395
  H         2.4995604597        6.1535450484       24.4768768441
  H         3.5319717350        7.3880899034       24.6883647289
  C         2.9399455376        6.5414585449       26.5858789121
  C         5.5206560382        0.1214353530       28.8941123203
  C         5.1910996889        2.2903164943       29.8134286058
  C         8.5972382837        2.3594160825       20.4367203227
  C         8.8597685795        3.7181889191       19.7135600314
  S         8.8555487606        6.3264925624       19.7568861066
  H         2.3148430056        7.4349349398       26.6013411804
  H         3.8295893790        6.6588698628       27.1254089536
  C         2.0445538018        5.2854565385       26.9338809454
  N         5.7265867209       -0.8705563008       27.9112869440
  C         5.3585679210       -0.4650498484       30.1895861181
  C         5.0686371746        1.7997700662       31.0831049074
  H         4.9283940845        3.3044023885       29.6658591742
  C         7.5654732434        1.5241401209       19.6325522196
  C         9.8574164836        1.5413824845       20.7023839995
  C         9.2759701995        4.1456017109       18.4297753255
  C         9.4292686899        5.4989914141       18.3191935602
  H         1.4535961416        4.8682892894       26.1045111113
  H         2.7488740490        4.4787016731       27.0724165986
  C         0.9224908538        5.4314544060       27.9362950431
  S         5.8538286767       -2.3161030815       28.6253139115
  N         5.3211420118       -1.9195721665       30.1279473970
  C         5.0850537655        0.3470747460       31.3268349187
  H         4.8457618091        2.4830593603       31.8808722978
  H         7.3678493805        0.5592732585       20.2028723700
  H         8.0606189978        1.2042288513       18.7120891654
  C         6.3401445316        2.4276420339       19.1629161071
  H        10.1494028381        1.1562248547       19.7245643723
  H         9.5830601955        0.8036091038       21.5325966824
  C        11.0174767193        2.2896811771       21.1813933705
  H         9.5449021827        3.3485342871       17.7187305422
  C         9.9067319955        6.2483059345       17.1181387872
  H         0.1764228271        4.6014310548       28.0088454483
  H         0.3867739747        6.2541603412       27.5478047618
  C         1.7171674633        5.6344877575       29.2887438779
  C         4.8507162318       -0.3184057285       32.6417278298
  H         6.6798353790        3.2255329177       18.5111573440
  H         5.8902459954        2.8593897753       20.0500043587
  C         5.2833577821        1.8158824844       18.1960619871
  H        10.8761737288        2.7391926619       22.1467852656
  H        11.3803986879        3.0413104629       20.4536463069
  C        12.2761771021        1.4136342988       21.4157816448
  C         9.8053277283        7.6296467313       16.9174517934
  C        10.2971383662        5.5561998258       15.8722158677
  H         2.5183594444        4.8847199331       29.3994562604
  H         2.2438630430        6.6166588624       29.3579909615
  C         0.7842023504        5.4842828041       30.4958653132
  H         4.8900537989       -1.3843138639       32.5470397027
  C         4.6264593286        0.0758786719       33.9298092658
  H         5.4529949289        0.7773298080       18.1788754566
  H         5.2757933685        1.9901820371       17.1240744707
  C         3.8316953272        2.1677278163       18.5879617122
  H        11.9463587427        0.6244772660       22.1433037635
  H        12.5173844205        0.8572632848       20.5740864259
  C        13.4593803294        2.1210378501       22.1083585778
  N         9.5506520971        8.4929722362       18.0202374063
  C        10.2746920393        8.3024667228       15.8177466455
  C        10.5953762829        6.1897055234       14.6913023933
  H        10.5262082101        4.4703955249       15.9077567055
  H         1.4843599927        5.3006643077       31.4446393323
  H         0.3158601334        6.3438823184       30.8098125311
  H         0.0722564449        4.6713761733       30.2936017413
  S         4.4971699367        1.6764319049       34.4088726320
  C         4.5627100661       -0.9590505666       35.0349696212
  H         3.8229176599        3.0802952230       19.1139635500
  H         3.3127187643        2.3014214683       17.6066905623
  C         2.9834874536        1.0232397412       19.2452898877
  H        13.2039716737        2.5755344529       23.0279585078
  H        13.7126039923        2.9462359123       21.4133397247
  C        14.7759084669        1.3480332335       22.2631029313
  S         9.7319633511       10.0250780611       17.4754827639
  N        10.1723930610        9.7032663855       15.9292825467
  C        10.8006285754        7.6416515083       14.6670610798
  H        10.9005542128        5.5144911383       13.9318768318
  C         4.2132547946        1.0163213677       36.0219739036
  N         4.2144373407       -0.3099424864       36.1037702658
  O         4.3696132709       -2.1390958822       34.7788130261
  H         2.0264405566        1.3624300145       19.5466952078
  H         3.4487913997        0.7907333873       20.2289439450
  C         2.7158122336       -0.2277174831       18.4791285637
  H        14.5121967123        0.2518790788       22.5777494138
  H        15.3487501674        1.2118310153       21.2888650408
  C        15.6620411193        2.0707830584       23.2110449161
  C        10.9185544714        8.4134574725       13.4037349029
  S         3.6445003855        2.0480523668       37.3310724179
  C         4.1306554000       -1.0812503338       37.2974990230
  H         2.5211550169       -0.1349322868       17.4326494975
  H         3.7042732186       -0.6068047098       18.5330465727
  C         1.6949808374       -1.0629126889       19.1796795071
  H        15.4961082795        1.7322674908       24.1765521456
  H        15.3102569391        3.1403855796       23.2325831323
  C        17.1108646060        1.6576840215       23.1843767332
  H        10.6955686895        9.4819870394       13.5244646977
  C        11.2842220661        8.0941920352       12.0822258425
  H         3.3018013814       -0.7840372878       37.9745472458
  H         3.7224256060       -2.1079272542       36.9530416930
  C         5.4289927850       -1.1789334216       38.0644346228
  H         0.7782515106       -0.4313932616       19.4465054598
  H         2.0960985827       -1.4552800474       20.1546423579
  C         1.1906953660       -2.0986156688       18.1665609223
  H        17.4852952030        1.8718285668       24.2148786792
  H        17.3490742478        0.5689914456       23.0822978617
  C        17.8271108403        2.3522531699       22.0210245020
  S        11.7686655050        6.5460795374       11.6331836893
  C        11.3493640691        9.1458845039       11.0837516061
  H         6.2211096028       -0.4993137380       37.8585894854
  H         5.2685878411       -1.2215163306       39.0945917666
  H         5.8117509361       -2.1496289753       37.9846291573
  H         1.9500067393       -2.7797185847       17.8172452998
  H         0.6354439094       -1.8552770373       17.3299021779
  H         0.6690863610       -2.8504711887       18.6911110003
  H        18.8594667869        2.0816477206       21.7932163784
  H        17.9243332089        3.4633094604       22.1863198479
  H        17.2213177733        2.3532678773       21.1374834847
  C        12.2395890380        7.3078121455       10.1484092279
  N        12.0380958540        8.6404041444       10.0476899185
  O        11.1425104143       10.3442375472       11.2422122455
  S        12.7577295605        6.5229456394        8.6481733692
  C        12.2658044520        9.3671023340        8.7522757877
  H        12.5490294242       10.3692673089        9.0941281913
  H        13.2132439175        9.1730285308        8.2155132336
  C        11.1020758601        9.3836236512        7.9241227656
  H        10.2389978405        9.2292492485        8.4982269189
  H        10.8908465046       10.2840950735        7.3444318790
  H        11.2043345115        8.5310472842        7.1630702219
  H        -4.0785488157       12.5438667869       16.7017428102
  C        -3.1077972919       13.0880018431       16.8445733907
  H        -2.4756769382       12.4327811922       17.2219512136
  C        -3.1407384982       14.2134473599       17.7820438213
  C        -2.6763707743       13.5683436182       15.3948661186
  C        -3.4586525045       13.6990048166       19.2054263135
  H        -2.2087194004       14.8236336002       17.8658883924
  H        -3.9576122623       14.7960606831       17.5629622194
  H        -3.4382622839       13.7582710980       14.6917877203
  H        -2.0443390127       14.4761947313       15.4050060273
  H        -2.0731930200       12.8139997351       14.8668792982
  C        -2.2626266043       13.5947410624       20.1717727988
  H        -4.1919557430       12.8790570958       19.3129338255
  H        -4.1518361488       14.4512232276       19.6481671717
  C        -2.6952958102       13.5303973916       21.5772953278
  H        -1.5691308966       12.8372632407       19.9129112354
  H        -1.5783634186       14.3292977716       19.9755475086
  C        -1.5609660249       12.9716900749       22.3739135985
  H        -3.5101334819       12.8881002248       21.6746819042
  H        -3.1484684386       14.4702813500       22.0028111896
  C        -0.3932585882       13.8649704533       22.7670622695
  H        -2.0674993016       12.6051116487       23.2732594019
  H        -1.1998429992       12.2370360116       21.7393975417
  C         0.6782721024       13.0008288961       23.4483679013
  H         0.0432110921       14.2551003445       21.8442955457
  H        -0.8034712252       14.6002835096       23.4573634435
  C         1.0280032504       11.6080418766       22.8051373799
  C         0.3601057287       12.2023001810       24.7325479398
  C         1.9575578964       13.8024314349       23.6874632918
  C         0.8865848318       10.4669723449       23.6017912065
  C         1.4080525269       11.2804723431       21.4397713865
  C         0.4476031701       10.8504834884       24.8317453833
  C        -0.1360738521       12.8890107663       25.8603251704
  H         2.1730272197       14.4370855410       22.7582999243
  H         1.7592917769       14.5023937660       24.4230978380
  C         3.2390811574       13.0489014084       24.1516095272
  S         1.2315046082        9.0202367021       22.7096896226
  C         1.5555015522        9.9451418637       21.2193371338
  H         1.6324100873       12.0604059008       20.7987599333
  C         0.0031368540       10.2145520042       25.9390941432
  H        -0.1217174283       13.9087978826       25.8260541121
  C        -0.5114267819       12.2295978260       27.0073848479
  H         3.4319678977       12.1231010065       23.6041509077
  H         3.0580696066       12.7169750273       25.1900653622
  C         4.4657428931       13.7593386364       24.1862375816
  C         2.0200663562        9.2654051794       19.9179967041
  C        -0.5254491791       10.8272648790       27.0842166261
  H        -0.0681388651        9.1831828518       25.9450750984
  C        -0.9739083750       12.4528461095       28.2544785409
  H         5.1812691219       13.3445717844       24.8673533684
  H         4.2798978340       14.6774622696       24.6614017118
  C         5.0801082988       14.0627548761       22.7623405043
  C         1.9927683819        7.8924083844       19.6839770082
  C         2.6072792059       10.0745271204       18.8736807866
  C        -0.9014276341       10.0329748566       28.3070553384
  C        -1.2239078285       11.3397675468       29.0169863326
  S        -1.2359671503       13.8720170414       29.1319934846
  H         5.8816599344       14.7969501098       22.9951808750
  H         4.3525155910       14.6170002527       22.0766380401
  C         5.7818037931       12.7584228629       22.1816547243
  N         1.5296956274        6.7520967826       20.4950143393
  C         2.4122028165        7.3914570702       18.4408196908
  C         3.0852421037        9.5617221186       17.7266181747
  H         2.5289811544       11.1626996624       19.0229784958
  C         0.2491084523        9.2973385438       29.0232597630
  C        -2.1584858306        9.1820659965       28.0800862525
  C        -1.5848930100       11.6292773973       30.3354038290
  C        -1.5360942722       13.0081357365       30.5643838441
  H         6.2488358945       12.0518733097       22.8766637659
  H         5.0318120794       12.1832439546       21.7652926880
  C         6.7499263872       13.0690428984       21.0451835526
  S         1.7205569676        5.3064952308       19.6833585182
  N         2.2977339790        5.9775450615       18.3238189574
  C         2.8783481812        8.1403887109       17.3525019575
  H         3.5202668116       10.3551219940       17.0454397250
  H         0.5788093241        8.4303519449       28.4521957337
  H        -0.1940834532        8.8533209792       29.8711887026
  C         1.3758677568       10.1642208261       29.5102705944
  H        -1.8849170455        8.2926734434       27.5153869751
  H        -2.6032804135        8.8483101629       29.0421758031
  C        -3.2226735421        9.9330747602       27.3202726170
  H        -1.8147266527       10.8963563692       31.0754942258
  C        -1.7492331764       13.7031985403       31.8748856040
  H         7.7065260165       12.3982137826       20.9547296761
  H         7.1042291850       14.0627846222       21.3885788639
  C         6.0574654957       13.2120017433       19.6880095284
  C         3.0200606988        7.5421494175       16.1031477389
  H         1.8100853509       10.6669956397       28.5650338309
  H         1.1015349828       10.9128802792       30.2770386124
  C         2.6034811781        9.4595781811       30.1014787976
  H        -2.7899519648       10.3264358627       26.4287826506
  H        -3.5270069506       10.6700923861       28.0355941444
  C        -4.3614286148        8.9908790933       26.9227878646
  C        -1.7574872418       15.1727349989       32.0294480180
  C        -1.9922518358       12.9907551164       33.1358878638
  H         5.4729613540       12.3454802030       19.3885085002
  H         5.5069048161       14.1191622741       19.7401867036
  C         7.0260081649       13.4788584760       18.5523879244
  H         2.7194945523        6.5326153054       16.0022135514
  C         3.4436394915        8.0632592489       14.8796236026
  H         3.1676037763        9.0651198087       29.2292204984
  H         2.1739830382        8.5608445287       30.5920539137
  C         3.5624950665       10.2788693277       30.9945410834
  H        -3.9435451612        8.1821403188       26.3808243127
  H        -4.8777117324        8.5703118395       27.8051936921
  C        -5.3199190178        9.7214083212       26.0362118281
  N        -1.3875954048       16.0800008779       31.0451236742
  C        -1.8589651791       15.8343067285       33.2506315817
  C        -2.1979663734       13.6302689136       34.3641393045
  H        -1.9733105786       11.8865864953       33.1728475161
  H         7.8762579805       12.8372192834       18.6015995615
  H         6.4689649605       13.2255259713       17.6868756720
  H         7.6494332047       14.3851565701       18.6119202511
  S         3.7882422582        9.6320802248       14.5412425194
  C         3.6177033029        7.0276560803       13.7925740522
  H         3.4291188556       11.2579776082       30.6574133899
  H         3.1926359031       10.2843626941       32.0950459238
  C         4.9492931040        9.7201639992       30.9607412867
  H        -5.5355577592        9.2451663694       25.0789395693
  H        -4.9441165331       10.7263492340       25.9029599174
  C        -6.6451763632       10.0439280886       26.6573067145
  S        -1.6556709625       17.5878630902       31.5661024033
  N        -1.8663176328       17.2225930603       33.1591169533
  C        -2.2342013544       15.1152950263       34.4495787251
  H        -2.3123541935       13.1041033798       35.2850094883
  C         4.2439503096        9.0449268228       12.9347503074
  N         4.0679623209        7.7186827428       12.7476168492
  O         3.2301998341        5.8388704926       13.8648416814
  H         5.5078109295       10.3011040958       31.7197560045
  H         5.5060380137       10.0103745705       30.0601680154
  C         5.1288903725        8.2112494651       31.2499092014
  H        -7.0870720783        9.1364558565       26.9503859534
  H        -6.5443991048       10.7892124983       27.4619349187
  C        -7.3749474974       10.7670908436       25.5474857510
  C        -2.4558174843       15.8584220607       35.6004385743
  S         4.6705479387       10.1183040912       11.6221233660
  C         4.1649150733        7.0935031878       11.3587537927
  H         5.9187080062        8.1094189599       31.9201298069
  H         4.3295556231        7.8401425334       31.8443154731
  C         5.4733072219        7.3675541562       30.0427296093
  H        -6.6166401407       11.3716192023       25.0051849644
  H        -7.9723242251       11.5038524398       26.1473523153
  C        -8.3812855246        9.8275000121       24.8790343498
  H        -2.2234776429       16.7920271276       35.6355735195
  C        -3.1571308361       15.5797174936       36.7354165809
  H         4.8808033770        7.7653324608       10.7070988024
  H         4.5625256176        6.1103749236       11.5684712451
  C         2.7182343747        6.9994119328       10.8807971368
  H         6.1100666722        7.9548963003       29.2991991659
  H         4.5903539090        7.0500001584       29.6047348030
  C         6.1072004449        6.0970101115       30.5062462647
  H        -8.5657772989       10.3604464030       23.9693404121
  H        -8.0526644985        8.8688378725       24.5593971845
  C        -9.6180295534        9.6334622290       25.7146952380
  S        -3.9834613194       14.1306209787       37.1084075457
  C        -3.2149696514       16.5900839638       37.8239012912
  H         2.5476865903        7.5949968204       10.0036535562
  H         2.3053874262        6.0360385350       10.8126122404
  H         1.8526790747        7.4981613155       11.4437577912
  H         5.3469098689        5.4211380625       30.8900723099
  H         6.7641661801        6.1399439077       31.3843777209
  H         6.6871060717        5.5147556094       29.7502844038
  H        -9.6471787219        8.6433532352       26.1196624824
  H       -10.5348685350        9.7196079410       25.1354394868
  H        -9.8563674922       10.3275490502       26.4925363466
  C        -4.5169237746       14.8816026221       38.5233958164
  N        -4.1096957811       16.1652021317       38.7468488170
  O        -2.6988441136       17.6844586469       37.7795050069
  S        -5.5364726608       14.1435011278       39.7879728051
  C        -4.3713867014       16.9058771703       39.9332004382
  H        -4.3231110678       17.9210191855       39.7197266993
  H        -5.3003402514       16.7595726596       40.4861266424
  C        -3.1078260330       16.7445677033       40.7175385373
  H        -2.7986199067       15.6998640562       40.9617443920
  H        -2.2669647687       17.3369488904       40.2151332980
  H        -3.1163763729       17.3227925548       41.6022849109
