352
 i =    70400, time =    70400.000, E =        25.0210962305
  H        12.3349424499        4.7902487091       32.0583180629
  C        11.4534456854        5.2518864975       31.6409405781
  H        10.8368083471        4.3528160810       31.3106940976
  C        11.7507637658        6.1988164790       30.5324713534
  C        10.8388636888        5.9311997983       32.9046441720
  C        12.5627391085        5.6286312560       29.3715894858
  H        10.7823470462        6.5473176166       30.1707422404
  H        12.2500175118        7.1441469583       30.9284903022
  H        11.3940621449        6.8042790524       33.0594273348
  H         9.7486436629        5.9477948803       32.9159282259
  H        11.0739795906        5.3500520498       33.8176819056
  C        11.6850899946        4.7453306443       28.4566044803
  H        13.3955459934        5.0802220440       29.7682603634
  H        12.7917971098        6.4734079859       28.8433239481
  C        11.0295949154        5.5001253877       27.3093077490
  H        12.5180538490        4.1591489783       28.0377358127
  H        11.1282161518        4.1115412574       29.1734958097
  C        10.1276090485        4.6849920212       26.3926666600
  H        11.8464714736        5.8363345343       26.6916996747
  H        10.5192330217        6.4361271324       27.6116348797
  C         8.8821780041        5.5193423738       25.9317013513
  H        10.6526357268        4.2608306637       25.5108820127
  H         9.7785482990        3.8590526723       26.9950815955
  C         7.7181808373        4.7419074154       25.1110925147
  H         8.4527703413        6.0648787584       26.8241541764
  H         9.1003825079        6.2916910908       25.2652238942
  C         7.3349744992        3.4262830673       25.7385936456
  C         8.1716175615        4.0503119878       23.9258034014
  C         6.5038307001        5.5795494960       24.6447411786
  C         7.5522769135        2.3251849537       24.8944857792
  C         6.8237248551        3.0856307543       27.0444448203
  C         8.0550994175        2.6953231509       23.7552132528
  C         8.6487585958        4.7748035308       22.8310300707
  H         6.0854313521        5.0104264735       23.8278898072
  H         6.8641936772        6.4428772825       24.1033956872
  C         5.3842971993        5.9465897460       25.6768785201
  S         6.9394215648        0.9218309032       25.5946230434
  C         6.5488414132        1.7295548025       27.0406616725
  H         6.7649970281        3.8778263992       27.7904615215
  C         8.3955922075        2.0869349075       22.5840006909
  H         8.7117077794        5.8529141242       22.8769011215
  C         8.9461459755        4.1400655600       21.6493423668
  H         5.2989956553        5.0441948885       26.2774693233
  H         5.7714256895        6.8614724192       26.2103913206
  C         3.9483947156        6.1137124515       25.1235737147
  C         6.2466927370        1.0313051922       28.3035573374
  C         8.9118550592        2.8050329162       21.5103401128
  H         8.3249729090        1.0128633877       22.3623947766
  C         9.4063883823        4.5423672872       20.3751370406
  H         3.6811393407        5.4695085197       24.3187297505
  H         3.9872748248        7.0292778978       24.5656119024
  C         2.8268879629        6.3033043211       26.2289295233
  C         6.2189269638       -0.3815990078       28.5078690655
  C         5.9117282557        1.8223304723       29.4879417233
  C         9.2766445869        2.0696423071       20.2221155901
  C         9.4580254742        3.4454478309       19.5319429540
  S         9.6269815924        6.0623163609       19.6108432679
  H         1.9806775069        6.7012681547       25.5897337104
  H         3.0948215227        7.1152318835       26.9645331002
  C         2.3364572720        4.9562728115       26.7615885247
  N         6.3410979525       -1.3593625435       27.5124504081
  C         6.0263585749       -0.9564300885       29.7541142540
  C         5.5461800809        1.2134437471       30.7109594346
  H         5.9512614158        2.8616977751       29.4425213835
  C         8.0845316847        1.2869237471       19.6016321008
  C        10.5247677266        1.3116488677       20.3607658695
  C         9.7298531680        3.8697267715       18.2296103038
  C        10.0473699542        5.2073716920       18.1541313973
  H         1.2766589283        4.8120840229       26.5038985945
  H         3.0054881750        4.0966271283       26.3352463855
  C         2.4054469015        4.9174880798       28.3333962601
  S         6.3188443843       -2.8447108359       28.1883551191
  N         6.0890386057       -2.3485416739       29.7408932760
  C         5.6509595220       -0.2526061458       30.9186364526
  H         5.3317955279        1.8869896735       31.4837417643
  H         7.8985972021        0.3789625403       20.1571188408
  H         8.4518425555        1.0908294945       18.5450538507
  C         6.8126824380        2.1064253652       19.6295405494
  H        10.8697364657        0.8692010737       19.4531717025
  H        10.3319650422        0.5396164461       21.0563740837
  C        11.7228960283        2.1181799049       20.8811952493
  H         9.7624851046        3.0789513206       17.4773022158
  C        10.4303570714        5.9009028097       16.9188394763
  H         1.5937432460        4.3083940248       28.7465624873
  H         2.1796642793        5.9244735123       28.7618736143
  C         3.7050407816        4.4943708193       28.9033280671
  C         5.3869577557       -0.9329838639       32.1619609334
  H         6.7920277245        3.0938589124       19.1932210400
  H         6.3342133291        2.2222084702       20.6528596408
  C         5.5831354402        1.3699069210       19.1066728185
  H        11.5083490257        2.4848111077       21.8380593235
  H        12.0439380864        2.8807157493       20.2036308142
  C        13.0069304379        1.3448454046       21.3076804580
  C        10.4105842485        7.2985784328       16.7770849587
  C        10.6978158160        5.1492951496       15.7162688458
  H         3.8438383766        3.4606286525       28.8503516406
  H         4.5575730651        4.9041407820       28.3593962976
  C         3.7514904367        4.7883194464       30.4061036402
  H         5.7145133848       -1.9893467487       32.2168144202
  C         4.9513697431       -0.5082014378       33.4256087322
  H         4.9337398434        2.1853539132       18.9054358641
  H         5.0941449926        0.6724688760       19.8702244421
  C         5.6659916836        0.6306293855       17.7828207310
  H        12.6655775486        0.6140721062       21.9982728345
  H        13.4014153847        0.7014701765       20.5547967135
  C        14.1474066723        2.2568961562       21.7356555350
  N        10.2136647033        8.2584005768       17.8384287893
  C        10.7156588938        7.9823282313       15.5996524025
  C        10.8497966455        5.7825599276       14.5018368328
  H        10.6439729931        4.0571432194       15.8615490158
  H         3.3654625102        4.1140929670       31.0537102500
  H         4.8701320503        4.8037348449       30.5998159757
  H         3.2213152622        5.7072677499       30.6791207081
  S         4.4850602039        1.1072221253       33.7783211370
  C         4.9631535408       -1.3975226245       34.5582050593
  H         6.5045611953        1.0146628670       17.1573976013
  H         5.8274279668       -0.3672351284       17.9849889957
  C         4.2726195643        0.6171948601       17.0639407137
  H        13.7625722853        2.8139807972       22.6166326605
  H        14.3159198295        2.9577648762       20.9280263870
  C        15.3881908265        1.5214918293       22.2721872364
  S        10.3428339232        9.7568565695       17.2570288768
  N        10.5752219480        9.3873470536       15.7370665398
  C        10.9476529575        7.2345559260       14.4886290133
  H        11.0374596929        5.1401697338       13.6362668274
  C         4.3261291136        0.5752682229       35.4310163769
  N         4.5749738168       -0.7223372471       35.6067167278
  O         5.3968257373       -2.5388225049       34.5016607478
  H         4.3273086952       -0.0489204983       16.2347308482
  H         3.9722708182        1.5957907818       16.6524400603
  C         3.0751493715        0.2136476754       17.7887610771
  H        15.0331704645        0.6819795832       22.8360611061
  H        15.9030751541        1.1477258839       21.3958557516
  C        16.2588154693        2.4525205686       23.1383933944
  C        11.1844867219        7.9732404099       13.2595485551
  S         4.0266194650        1.4986668198       36.9256471345
  C         4.7129769117       -1.3364934305       36.9884525444
  H         3.1085381670        0.6573590032       18.7761250430
  H         2.2044603062        0.5357286424       17.2625674691
  C         2.9772883579       -1.3101254270       18.0113507573
  H        15.6478091041        2.8916520348       23.9899402413
  H        16.6195027314        3.2967233525       22.5854852424
  C        17.5162754363        1.6692947073       23.5877952367
  H        10.7691429686        8.9293055401       13.1836123161
  C        11.7443185066        7.5652188479       12.0786299644
  H         4.0377979046       -0.8883870173       37.7016520355
  H         4.3750221197       -2.3242077710       36.8703801222
  C         6.1671994933       -1.3222474886       37.5197347949
  H         2.2695101557       -1.4067413047       18.9194997109
  H         3.9823874296       -1.6613359242       18.3465788964
  C         2.5092663605       -2.1998681271       16.8447430149
  H        17.8693403707        2.2675793656       24.4721463349
  H        17.3708866872        0.5976786157       23.9075025049
  C        18.4950140152        1.6859282087       22.3866831697
  S        12.4350315732        6.0296468522       11.6321385313
  C        11.7633018996        8.5416235319       10.9428272627
  H         6.8400052258       -1.3467623246       36.6267366917
  H         6.2839934591       -0.3449867577       38.0096524403
  H         6.5769184188       -2.0508324531       38.2345320234
  H         1.9444358644       -1.7374026495       16.0518239070
  H         2.0718549502       -3.0831709602       17.2488419461
  H         3.4042671277       -2.5212893907       16.2818606524
  H        18.5922259989        2.7109388111       22.0523959643
  H        18.1906145832        1.0738245545       21.4816521915
  H        19.4348092530        1.2882289508       22.7034164291
  C        12.6877370541        6.7372684661       10.0241613051
  N        12.3023292758        7.9992464436        9.8615499754
  O        11.4306286112        9.7467272225       11.0672396217
  S        13.2083299072        5.8364600006        8.5963834696
  C        12.4555598531        8.7666860058        8.6371623416
  H        13.0194137956        9.6483835825        8.8987912509
  H        13.1054477268        8.2207033507        8.0081495167
  C        11.1568732391        9.0973517863        7.9996776703
  H        11.0348744798        8.2207126749        7.2861066046
  H        10.3142518440        9.2326794025        8.6070641477
  H        11.2852999553        9.9328657701        7.3624375883
  H        -3.4525103107       14.4371376139       16.1576494629
  C        -3.1431347670       13.4183880055       16.3376824623
  H        -4.0565037591       12.8857906383       16.7055855228
  C        -2.0997361908       13.3902758876       17.4310077998
  C        -2.6014838548       12.7891299670       14.9792877187
  C        -2.5707571186       13.8504470999       18.8886641272
  H        -1.6786800769       12.3701139433       17.6048044806
  H        -1.2811081531       13.9415105447       17.0614254777
  H        -2.0982320615       11.8765889527       15.2491259055
  H        -3.3723582237       12.4461482964       14.2582592134
  H        -1.8561915701       13.4356495866       14.5267057020
  C        -1.8798534398       12.9019831860       19.9344924881
  H        -3.6213806530       13.8298979282       18.9855435400
  H        -2.2975697998       14.8744379269       19.1261983595
  C        -2.3112897730       13.2301714813       21.3765194435
  H        -2.1032971204       11.8579655687       19.6876332303
  H        -0.8272072931       12.9685185347       19.8969657764
  C        -1.3266685594       12.7442621247       22.4374641202
  H        -3.2658596491       12.6601168929       21.5947059035
  H        -2.4133535900       14.2900994423       21.4993129054
  C        -0.0871067607       13.6982099395       22.6815000307
  H        -1.7316397922       12.3690640649       23.3831696474
  H        -1.0479493426       11.7838768116       21.9888151694
  C         1.2413443290       12.9966891273       23.2525485925
  H         0.1143748699       14.2600737123       21.7537272882
  H        -0.3599313503       14.4163521227       23.3888443740
  C         1.5927128286       11.6797776675       22.6183861408
  C         0.7494981233       12.2578046302       24.5033412717
  C         2.4771996211       13.9937555313       23.4132335140
  C         1.3503690645       10.5451309619       23.3785983627
  C         2.0898382695       11.3963183023       21.3423903620
  C         0.8115081346       10.8999953825       24.5937154347
  C         0.3340278458       12.8554716332       25.7303814793
  H         2.5755408952       14.5107366086       22.4508961650
  H         2.2033063829       14.7424505809       24.2044606661
  C         3.7923106941       13.3456860981       23.8844185469
  S         1.9274832362        9.0988290881       22.6062383143
  C         2.3609999604       10.0577622540       21.2278262248
  H         2.3134705600       12.0668260849       20.5551982430
  C         0.5183300055       10.2623320524       25.8017243521
  H         0.2384412241       13.9413053485       25.7264681879
  C         0.0260315868       12.2499616433       26.9651677708
  H         3.9915296844       12.4163736153       23.3865129015
  H         3.5818955994       13.0558951612       24.9116926274
  C         5.0186900291       14.3118994159       23.8090146904
  C         2.7940588117        9.3200029215       19.9781712025
  C         0.1000563856       10.8835706402       26.9776348697
  H         0.6657612091        9.2366602388       25.9878644789
  C        -0.2997985861       12.5359879855       28.2703427443
  H         5.7245866802       14.0833422894       24.6049324390
  H         4.7342329950       15.3260813942       24.0785798032
  C         5.7570298325       14.3539173777       22.4593095893
  C         2.7843863945        7.8870317791       19.6971218995
  C         3.1668373334       10.1374083745       18.7859057791
  C        -0.1723934247       10.0732061806       28.2222050515
  C        -0.4240759291       11.3544635064       29.0257242113
  S        -0.6462635765       13.9274483427       29.2010308943
  H         6.5330547357       15.1186688366       22.3218282301
  H         4.9609713215       14.4828176768       21.6486394151
  C         6.3635371623       12.9716896761       22.1253408260
  N         2.5484677341        6.8777941858       20.6715385736
  C         3.1816918892        7.3313884333       18.4695107453
  C         3.4798771657        9.5129688907       17.5753745473
  H         3.1443140346       11.2080109417       18.7944573497
  C         0.9950942338        9.2853072904       28.8461958995
  C        -1.3726729740        9.0987484289       27.9932810038
  C        -0.8022781746       11.6323420838       30.3672022492
  C        -0.9532666670       12.9885530775       30.6003251727
  H         6.8285563205       12.5536740284       22.9681785995
  H         5.6836775820       12.2531094253       21.8997508745
  C         7.4771719474       13.1775136827       21.0522775851
  S         2.5189636169        5.4624584766       19.8715709768
  N         3.1114888298        5.9073994512       18.4551624740
  C         3.5252327232        8.0804644085       17.3577067803
  H         3.7960213037       10.1365878259       16.7356926781
  H         1.1391512364        8.3344088447       28.3965461068
  H         0.6409012661        9.0672152145       29.8577879507
  C         2.3845039775       10.0186168853       28.8605585213
  H        -1.2354898993        8.3989909421       27.1980943788
  H        -1.5929215973        8.6231595290       29.0139888398
  C        -2.6448356885        9.8945626541       27.7202256826
  H        -0.9821843338       10.8309782666       31.0400836923
  C        -1.2848611683       13.5781538275       31.9467820458
  H         8.1959187003       12.3506320505       21.1355712126
  H         8.1487035812       13.9931322799       21.3018453729
  C         6.8543628502       13.3766189008       19.6374472714
  C         3.5936201924        7.3998309284       16.1394200045
  H         2.7215334071       10.1648951695       27.8325484427
  H         2.2409998754       10.9938784027       29.2119670481
  C         3.3758930089        9.2140281422       29.6634605041
  H        -2.4859736868       10.6426580936       26.9752242402
  H        -2.9438460737       10.3644197184       28.6313349784
  C        -3.8290433739        9.0286574493       27.2659967011
  C        -1.4849258317       14.9712819573       32.1998349017
  C        -1.6831767930       12.7080574133       33.0742360976
  H         6.2090145659       12.6014401842       19.3454526907
  H         6.1913725698       14.1154197016       19.7833415019
  C         8.0623703380       13.5663178564       18.7402019311
  H         3.3738520874        6.3217049797       16.1251489506
  C         3.8737494246        7.8162825659       14.8423692617
  H         3.8841646179        8.5755700994       28.9730470916
  H         2.8541140307        8.6992749925       30.4657264267
  C         4.5575119546        9.9531072994       30.3994406902
  H        -3.4715738448        8.2737815756       26.5546062945
  H        -4.2065379359        8.5280890655       28.1462890016
  C        -4.8522450689       10.1027300249       26.7475995910
  N        -1.3578512222       15.9952390725       31.2746202077
  C        -1.8953588838       15.4699493771       33.3905203721
  C        -1.9079748907       13.1405471518       34.3264455167
  H        -1.6014892998       11.6298479672       32.9024516010
  H         8.7975651723       14.1511079970       19.1703875743
  H         8.5619805712       12.6083782994       18.5836689424
  H         7.9270937447       13.9740111768       17.7380365742
  S         4.1867196459        9.4190572856       14.3458122859
  C         3.8986350393        6.8523749086       13.7101939486
  H         4.7539556612       10.8453207866       29.8119379495
  H         4.3544936969       10.2738343160       31.3762667483
  C         5.8560219884        9.1151474411       30.5925645469
  H        -4.3850420194       10.9556943085       26.1001749124
  H        -5.3079009208       10.6782418759       27.5720224314
  C        -6.1012628815        9.5267751000       26.0645162511
  S        -1.5022032761       17.4462103354       32.0482054066
  N        -1.9149817430       16.8475796675       33.4873027860
  C        -2.0699763758       14.6576380240       34.5388177222
  H        -1.9327513561       12.3325106173       35.0574031633
  C         4.3471988295        8.7625249487       12.7530418768
  N         4.2845208791        7.4152137213       12.5808158124
  O         3.6302253257        5.6558845151       13.7481587001
  H         6.4014808789        9.5106358987       31.4042845063
  H         6.4966642685        9.1428428928       29.7029668975
  C         5.6200911201        7.6353413418       31.1260812132
  H        -5.6344983447        8.9252954261       25.2615993434
  H        -6.6275014846        8.7927515240       26.7961463016
  C        -7.0103969127       10.5231433334       25.5275521808
  C        -2.3642890111       15.3141833499       35.7735872653
  S         4.7257637624        9.5876589888       11.2696758106
  C         4.4931676777        6.6454550932       11.3263533246
  H         5.0467953660        7.7151825433       32.0115593370
  H         5.0339390348        7.1230242399       30.3859764633
  C         6.9052021149        6.7858269166       31.4881790089
  H        -6.5657060337       11.0394672987       24.7515604789
  H        -7.1339505338       11.3765352698       26.2747491646
  C        -8.1838236322        9.8135500067       24.8926077898
  H        -1.9648067482       16.2771617645       35.8487906227
  C        -3.0064516369       14.9844159350       36.9367567839
  H         5.0620719500        7.1239986098       10.6437599954
  H         4.9291003167        5.6729555629       11.5201503750
  C         3.0796436545        6.4868200032       10.8074073569
  H         6.5789222702        5.8678139870       31.9621096068
  H         7.4513938965        7.3375347715       32.3215326244
  C         7.8979629110        6.4966670370       30.3228205522
  H        -8.3421622683       10.2675931670       23.9051088192
  H        -7.8094656539        8.8150586324       24.7144563317
  C        -9.3653435932        9.8861261926       25.8118150838
  S        -3.8727520208       13.5212237332       37.2530683287
  C        -3.0378723406       15.9814099454       38.0197153910
  H         2.9781547855        5.5249307883       10.4024624329
  H         2.3792501531        6.7737433237       11.5684252430
  H         2.9017936060        7.2422545778       10.0535732142
  H         8.7900194790        5.8561037979       30.6747842809
  H         8.4244985318        7.3648993325       29.9609487404
  H         7.3930264388        6.1674062594       29.4703235372
  H        -9.2065298418        9.2348024800       26.6608465692
  H       -10.3759170626        9.6872088616       25.4860270875
  H        -9.4574636201       10.8943010017       26.2354175136
  C        -4.3025829792       14.2882651131       38.8110536404
  N        -3.8380328197       15.5135830292       39.0115171550
  O        -2.4833065608       17.0836482109       38.0030161183
  S        -4.8431702749       13.4323450325       40.2784396078
  C        -4.0551786001       16.2889115543       40.2065522126
  H        -4.0815413179       17.3654873830       39.9258855895
  H        -5.0040407184       15.9749724119       40.6999820902
  C        -2.8696994662       16.1255981809       41.2180278128
  H        -3.0397048280       16.6690908382       42.1716744946
  H        -2.6250330547       15.0952051086       41.4379726572
  H        -1.9360067337       16.6034319304       40.7561152472
