352
 i =     5100, time =     5100.000, E =        31.6807000890
  H        12.1836692849        5.1377479728       31.8668079249
  C        11.0818091839        5.3239084121       31.9246798441
  H        10.4251456145        4.4878409939       31.7802826179
  C        11.0152913624        6.3347714833       30.7868977842
  C        10.7520748343        5.9116861902       33.3532748073
  C        11.4175458389        5.8130984321       29.4015768782
  H         9.9496774243        6.5734216782       30.7678999886
  H        11.4581190451        7.2733859120       31.0212411545
  H        11.2092818103        6.9236091076       33.4584667695
  H         9.7002724943        6.1837540957       33.4293402665
  H        10.8856001866        5.2398587907       34.2341822525
  C        10.2059079230        5.5818158821       28.5810437228
  H        12.0494536140        4.9334286471       29.3948737634
  H        12.0163290204        6.5587862239       28.8420261292
  C        10.6989461086        5.3948183164       27.1396960857
  H         9.6133360505        4.7008294421       29.0022948755
  H         9.5753245681        6.4621570996       28.6490069175
  C         9.6145636218        4.8851426263       26.2735099307
  H        11.5179367615        4.7328764794       27.1748109662
  H        10.9220603714        6.4045709769       26.8475624254
  C         8.3262999692        5.7414948872       26.0462044598
  H         9.9222486278        4.5551750297       25.3001415291
  H         9.3766083382        3.9621123788       26.7677345872
  C         7.0856222771        5.0756802148       25.3587632351
  H         8.0415803752        6.0469019167       26.9683964317
  H         8.5849340156        6.6075600292       25.5612398559
  C         6.6897190340        3.8161333877       25.9296982421
  C         7.5094091457        4.3730941003       24.1105243432
  C         5.8391078306        6.0411574798       25.2787358560
  C         6.9202773755        2.7072453353       25.1665019339
  C         6.2150651155        3.4225569306       27.2294766937
  C         7.4446430264        3.0303368407       23.9523178479
  C         7.8588980844        5.0310152413       22.9430918228
  H         6.0517535790        7.0577924050       24.9061485940
  H         5.6129945494        6.2480009000       26.3023022381
  C         4.6274780399        5.2703090976       24.7492708618
  S         6.7387092363        1.1873254196       25.9176378352
  C         6.1422552431        2.0825827706       27.3569075454
  H         5.9959214926        4.2026088106       27.8913174934
  C         7.9113974680        2.3519551160       22.8259291070
  H         7.9598244631        6.0557265058       23.0043456239
  C         8.2552864850        4.4037877000       21.8027807379
  H         4.8551858293        4.8189824620       23.7465697088
  H         4.2418185879        4.4984329158       25.4715819860
  C         3.3880338331        6.2405196737       24.6610348086
  C         5.6967021519        1.3937395738       28.6482690729
  C         8.3534007482        3.0617282633       21.6865447171
  H         7.9126832923        1.2804661328       22.8653083613
  C         8.7225664265        4.8647219508       20.5796444614
  H         2.6208014474        5.8402290289       24.0455187866
  H         3.6930979259        7.1970021977       24.2130419318
  C         2.7312843420        6.5260007335       26.0011091577
  C         5.8930102455        0.0336439288       28.9785243553
  C         5.2175372388        2.2408214234       29.7230077745
  C         8.7810769643        2.4014284568       20.4014089536
  C         8.9731247961        3.8287301703       19.6902519535
  S         9.0018071143        6.3988596279       19.8586513054
  H         2.1156898799        7.4314609886       25.8128678761
  H         3.4098131083        6.6830661199       26.7774271400
  C         1.8334219794        5.3305048599       26.5003716164
  N         6.3684283374       -0.9532117887       28.1454865717
  C         5.4621232618       -0.5148372879       30.1755686305
  C         4.9161308968        1.6869197118       30.9800986137
  H         5.2549765057        3.3503018217       29.7016758380
  C         7.5747260307        1.6392364147       19.7630263220
  C        10.0897953270        1.7019901113       20.7121375026
  C         9.4134967992        4.2641418051       18.4724710467
  C         9.6217014245        5.5989126156       18.4183075626
  H         1.1171326542        5.2576186797       25.6522972919
  H         2.4669464542        4.3807066511       26.6275237031
  C         0.9000786124        5.5259786946       27.7513921852
  S         6.2759488623       -2.3925521327       28.9007574170
  N         5.5968521573       -1.9247163908       30.2769373230
  C         5.0414326959        0.2530453113       31.2844786778
  H         4.5953550586        2.3354069890       31.6979031615
  H         7.2202204773        0.9568744310       20.4817653129
  H         7.8481184508        1.0592138729       18.9173416807
  C         6.5186851756        2.5319206616       19.0743561086
  H        10.4348936733        1.2480688364       19.8130738614
  H         9.8360722771        0.8189299405       21.2711767812
  C        11.2134284354        2.5645051094       21.3562430745
  H         9.7099044825        3.4068624908       17.8514396425
  C        10.1129261398        6.3941262595       17.2595123901
  H         0.2204100435        4.6854904027       27.8406490468
  H         0.4111597722        6.4869389808       27.5747837323
  C         1.8428048108        5.5340539260       28.9960085330
  C         4.8779220154       -0.3787954036       32.5554259809
  H         6.9914428134        3.0537430241       18.2305830409
  H         6.1723997636        3.1696961614       19.8002079587
  C         5.3430388875        1.6903022525       18.5943677663
  H        10.9176691877        3.2201892638       22.1513607293
  H        11.4451344733        3.2091731331       20.5431269798
  C        12.5542588158        1.9157873953       21.5177729255
  C        10.2352462846        7.8291944271       17.1033134235
  C        10.3840650726        5.6781342992       15.9937824758
  H         2.4241187290        4.6967243917       28.9905415667
  H         2.5245913216        6.3481912220       28.8137312072
  C         1.0225619487        5.7992679102       30.2400588878
  H         4.9692001156       -1.4659338207       32.6157576545
  C         4.7036243590        0.0641734313       33.8366612129
  H         4.6967568968        1.2953346627       19.4156873622
  H         5.7007493844        0.7053123459       18.1423706533
  C         4.4739486105        2.3335586569       17.6302624573
  H        12.4979500921        1.1414427838       22.2708813349
  H        12.9013048187        1.4209175673       20.6034806034
  C        13.6427490645        2.7213253569       22.1183947398
  N        10.0090911213        8.7737544567       18.1405386482
  C        10.4290564942        8.4840962988       15.8997781422
  C        10.5446076937        6.3483025389       14.7695032096
  H        10.1841463506        4.5541394927       15.9510628485
  H         1.7862998573        5.8250652852       31.1286947329
  H         0.4020323093        6.6222106857       30.0456915865
  H         0.5222083095        4.8572684849       30.2390611506
  S         4.5043515206        1.6956416167       34.3009842864
  C         4.5097066171       -0.9024019985       34.8898803202
  H         4.2389263868        3.3669264213       17.8961710607
  H         4.9617345629        2.4101576601       16.6590718964
  C         3.1291061059        1.6688309503       17.6209620369
  H        13.5621169859        2.8106552010       23.1291009943
  H        13.7470482617        3.7431029866       21.7975088471
  C        15.0498196055        2.0632124407       22.0428195305
  S        10.1126890023       10.2480744644       17.5745174145
  N        10.3824687595        9.9359124417       15.9785354686
  C        10.5618409419        7.7759940714       14.6659681008
  H        10.5692211669        5.8194085346       13.8044683644
  C         4.1868134098        1.1191360867       35.9332276915
  N         4.3023878189       -0.2232364826       36.0486918671
  O         4.6871897704       -2.1078039285       34.9122290454
  H         2.5002465253        2.3388381869       16.9853739916
  H         2.7142281163        1.8217220149       18.5867924516
  C         3.1167817713        0.2640724118       17.1403219840
  H        14.9220057445        1.0436656996       22.2611849912
  H        15.4020165024        2.1587942131       20.9730941070
  C        16.0480125709        2.8229391722       22.9215359977
  C        10.7724849208        8.5578311337       13.5143588476
  S         3.7815952375        1.9997654553       37.4146609351
  C         4.2026631147       -0.8801686926       37.3432075104
  H         2.6075078109        0.2616852879       16.2326127155
  H         4.1570955645       -0.1505381507       16.9427639694
  C         2.3404542125       -0.5530864831       18.1171155826
  H        15.5966766647        3.4010597545       23.7478388896
  H        16.3801986073        3.5936332070       22.1812774364
  C        17.2038637010        1.9114288936       23.3193282491
  H        10.7767135964        9.6314688696       13.7200434991
  C        11.1964462297        8.2312803168       12.2655475732
  H         3.4901113382       -0.4703046491       38.0287452810
  H         3.8490672434       -1.8077372618       37.0671200426
  C         5.5936436249       -0.8932235126       37.9488952874
  H         1.5558347787        0.0493714183       18.6227431433
  H         2.9118790061       -1.0971729658       18.9068300249
  C         1.5897384886       -1.6916072749       17.3421643834
  H        17.6846127621        2.5308792108       23.9857017275
  H        16.9503476043        0.9464504999       23.8067784161
  C        18.2694463125        1.7019197050       22.3048302256
  S        11.6970392122        6.6753179630       11.6007661927
  C        11.3493766037        9.3207826100       11.2837082528
  H         5.6779482402       -0.0149336661       38.6243157809
  H         5.7603262010       -1.7430661552       38.5491490292
  H         6.3209466293       -0.7971712920       37.2307175137
  H         1.2953166997       -2.5710244783       18.0031078372
  H         2.2621351479       -1.9446117082       16.5151581978
  H         0.6272884749       -1.2399203064       16.9084954970
  H        18.6743134578        2.5197096725       21.7293864573
  H        17.9158099539        1.0769758954       21.6822222403
  H        19.0683048488        1.1557413360       22.9008237893
  C        12.3914719058        7.6357069898       10.2860815424
  N        12.0829007854        8.9244288154       10.2563724669
  O        11.0789917776       10.5165533857       11.4182432099
  S        13.1422960414        6.7947587629        8.7821730369
  C        12.2630911815        9.7925281501        9.1055858681
  H        12.3502281594       10.8727990634        9.4310978073
  H        13.1885860925        9.6393162945        8.5277064140
  C        10.9127290183        9.7001755569        8.2518788185
  H        10.1591532455       10.2072933025        8.8413816522
  H        11.1205753039       10.3123322646        7.3373873938
  H        10.3896199223        8.6657819830        8.0318202148
  H        -4.1463227690       12.6909104548       15.9968028694
  C        -3.2065270665       13.2272292578       16.2555018850
  H        -2.4898526003       12.5652315406       16.5643489910
  C        -3.3393690799       14.3644849186       17.2769017931
  C        -2.6770029856       13.8737496392       14.9627039510
  C        -3.4047142119       13.7734396385       18.7075502349
  H        -2.6102857443       15.2036832443       17.2385708050
  H        -4.3195554850       14.8712590590       17.0952130646
  H        -3.2768213990       14.7423977247       14.6607689529
  H        -1.5393059884       14.0151685064       15.0448725815
  H        -2.8838818502       13.1564614476       14.1847885745
  C        -2.0569550660       13.4913123170       19.3394809291
  H        -4.0470619494       12.9198774887       18.8199088344
  H        -3.9903748363       14.5253131557       19.2104033108
  C        -2.1450115754       13.4753260132       20.7991191343
  H        -1.4764581652       12.6002439973       18.9509104047
  H        -1.4522239504       14.3489860548       19.1833272845
  C        -0.8931915174       12.8295652452       21.4437982066
  H        -3.0374871277       12.9755460251       21.1477983664
  H        -2.2195732720       14.4648482074       21.2715872086
  C        -0.2150883671       13.8525070501       22.4524869254
  H        -1.2210033763       11.8581643450       21.8910441979
  H        -0.2809888349       12.5416373851       20.6246190319
  C         0.9980819291       13.1847967318       23.1143068212
  H         0.2334179705       14.7344036524       21.9513940640
  H        -0.8961781692       14.3769047576       23.1980525269
  C         1.5194686506       11.8694243587       22.4519995937
  C         0.5140834658       12.4251882003       24.3252224452
  C         2.1118715216       14.0803252172       23.5910936344
  C         1.2234296802       10.7777037470       23.2460670502
  C         1.9846759911       11.5321982153       21.1791755176
  C         0.6159311178       11.0709004640       24.4129922394
  C        -0.0671960299       12.9725874188       25.4221885018
  H         2.4472821166       14.7323826761       22.7474101779
  H         1.7933010860       14.7481352518       24.3782423316
  C         3.4487189987       13.4205372483       23.9881188571
  S         1.7258505642        9.2794095788       22.4139816563
  C         2.1233659013       10.2243073950       20.9873878311
  H         2.1880318953       12.3011161016       20.4247008249
  C         0.2878427548       10.4430644777       25.5395509423
  H        -0.2061583353       14.1021789885       25.3281193697
  C        -0.3244601668       12.3385413685       26.5938478163
  H         3.9632275170       12.9419108834       23.1036404968
  H         3.4054252877       12.6686671172       24.7721749460
  C         4.6863230287       14.3042098078       24.2699782521
  C         2.5343617563        9.4582217383       19.7871655615
  C        -0.1421196592       11.0220991423       26.7099929368
  H         0.5010528896        9.3328172120       25.5082777813
  C        -0.7783297039       12.6668865287       27.8118532142
  H         5.3790725346       13.6143819057       24.8309069774
  H         4.4715475527       15.1980915888       24.8675118479
  C         5.4907073292       14.6599772427       22.9624931235
  C         2.5863388947        8.0539662493       19.5787178177
  C         3.0376278574       10.2863591610       18.6367410437
  C        -0.4663950535       10.2271684945       28.0136670682
  C        -0.7639297745       11.6048505481       28.6933204911
  S        -1.1760193708       14.1374229128       28.6026340505
  H         6.0272789254       15.6212491046       23.1000743154
  H         4.7838299386       14.8645128997       22.1100883203
  C         6.5173088122       13.6044275889       22.6593210411
  N         2.2359715482        7.0338247165       20.4801047634
  C         2.8438624967        7.5727106708       18.2878113072
  C         3.4007509662        9.7562959145       17.3549582705
  H         3.1575191697       11.3316151699       18.8236821230
  C         0.6354452934        9.4806570638       28.7210804847
  C        -1.7394407887        9.4080100637       27.8620323212
  C        -1.1702603791       11.9355187550       29.9643388612
  C        -1.3748057357       13.2853002286       30.1129192914
  H         7.1879056522       13.2551695054       23.4758610054
  H         6.0432198948       12.6686826128       22.4672750241
  C         7.1892344142       13.9303558593       21.3008738650
  S         2.3044054333        5.5609316923       19.7581093862
  N         2.8743568582        6.1046528366       18.3386362573
  C         3.1866335882        8.3241259280       17.1522086472
  H         3.7902867667       10.4257716549       16.6154113431
  H         0.7291888187        8.5937610697       28.1741311522
  H         0.3328679515        9.2390812466       29.7074403306
  C         1.9402323782       10.2679364251       28.8944465317
  H        -1.4079546254        8.5553632341       27.1967656730
  H        -2.0014404685        8.9419563197       28.8283363667
  C        -3.0101894040       10.1186582291       27.2962107022
  H        -1.3078210009       11.1861853969       30.7134058377
  C        -1.6981180923       13.9745550322       31.3998770790
  H         8.1001492679       13.3059562277       21.3137855118
  H         7.5639036471       14.9550789263       21.4271018537
  C         6.2463480085       13.7415017155       20.1490957735
  C         3.4127820958        7.7333367230       15.8883355306
  H         2.3762786942       10.5708880203       27.9108268713
  H         1.6753897805       11.1485966698       29.5345643754
  C         2.9715548649        9.3614942429       29.5441441910
  H        -2.8512155029       10.6575762139       26.3333926423
  H        -3.3078840865       10.7128151231       28.1446757486
  C        -4.2115602597        9.1491682980       27.0898513544
  C        -1.7902835957       15.3914311343       31.6699679912
  C        -1.9026609341       13.2017356746       32.6120345547
  H         5.7878322292       12.8316947494       20.3580410623
  H         5.4437942011       14.3808115586       20.0713029744
  C         6.8579100678       13.7156779217       18.7431050050
  H         3.4505339331        6.6627323353       16.0119753181
  C         3.6878890255        8.0562815215       14.6575110272
  H         3.3059138164        8.6313255339       28.8135575480
  H         2.4721683389        8.6284141587       30.2167041268
  C         4.1326868935       10.1798669159       30.1100240795
  H        -3.8940595187        8.1736592395       26.5541569612
  H        -4.3827887765        8.7853368065       28.0749157938
  C        -5.3382148883        9.7611617499       26.3224235284
  N        -1.7090225052       16.4231963182       30.6823729931
  C        -2.1202662980       15.9201806048       32.8799964526
  C        -2.2933793883       13.7238785705       33.8309261070
  H        -1.7233576790       12.1456008690       32.5530037164
  H         7.2516067143       12.6943871184       18.5475617412
  H         5.9582230487       13.7170604588       18.1813819458
  H         7.4126631479       14.5676465961       18.3840544161
  S         4.0201774318        9.5862627220       14.0431508935
  C         3.6565369605        6.9570530991       13.6056799512
  H         4.2962902259       11.1539635732       29.5791084655
  H         3.9346847965       10.4726741273       31.1368003653
  C         5.3800824089        9.3593615007       30.0996609858
  H        -5.5182841564        9.0778744556       25.4526430708
  H        -5.0112373942       10.7063206487       25.9701271480
  C        -6.4701110233        9.9296958982       27.2040170492
  S        -1.9188194738       17.8611652496       31.3364104959
  N        -2.3585484366       17.3233518272       32.8027943620
  C        -2.2782372570       15.1752231095       34.0738895307
  H        -2.3208921986       13.0356323042       34.6633702683
  C         4.2703529430        8.8153103268       12.5147774369
  N         4.1258900778        7.4548806395       12.4302639343
  O         3.3730862348        5.7819258248       13.8621131117
  H         6.1000103357       10.1308044613       30.2659543195
  H         5.8169887510        8.9212680415       29.1635387476
  C         5.4265842426        8.4061066115       31.2824316339
  H        -7.0464627590        9.0583601251       27.4344079209
  H        -6.1236581865       10.3397775966       28.2221856342
  C        -7.3882416099       10.9097726663       26.5050634319
  C        -2.7335817082       15.8974754850       35.1823267013
  S         4.7320760682        9.6454480309       11.0174323369
  C         4.1966281585        6.6363952153       11.2838916045
  H         6.0368443063        8.7905563692       31.9937099202
  H         4.4060439052        8.2191962513       31.6546235918
  C         6.1192110986        7.1305224373       30.8900005989
  H        -6.8139988804       11.7971415810       26.2201967493
  H        -8.1318504821       11.2578541082       27.2206810145
  C        -8.3108621812       10.3432049125       25.3265375635
  H        -2.6334341734       16.9514608864       35.2249191397
  C        -3.2377301702       15.4859265374       36.3939331343
  H         4.9465546617        6.9729905957       10.5788073786
  H         4.3364097750        5.5870327401       11.5442354089
  C         2.8075646868        6.2748016605       10.7468282605
  H         7.0196720590        7.1760227774       30.3131167498
  H         5.4400260671        6.5033158430       30.1901044681
  C         6.2923679795        6.3385568900       32.1605004348
  H        -8.5242315873       11.2451960855       24.7439778395
  H        -7.9456446055        9.6395563522       24.5860628927
  C        -9.6985844675        9.8980032271       25.8711495216
  S        -3.7280390170       13.8797268793       36.8401652712
  C        -3.3264424345       16.5187893690       37.5105827904
  H         2.4191172890        7.1248508288       10.2199861286
  H         2.9077145146        5.4602084159       10.0288369446
  H         2.0399170338        6.0357026135       11.5265622356
  H         5.3814700284        6.0982245708       32.7355214157
  H         6.9048873130        6.8613039520       32.8783021763
  H         6.8293822532        5.4199286281       31.8154214604
  H        -9.5895518999        9.0899196050       26.5843873007
  H       -10.3590152192        9.6015887403       25.0946986535
  H       -10.3055900282       10.7922284613       26.2315995800
  C        -3.9523669791       14.5045736289       38.5015379196
  N        -3.8695925565       15.8758866118       38.5967542914
  O        -3.0560903616       17.7251000919       37.4004710662
  S        -4.5857365529       13.5658635377       39.7830161273
  C        -3.9289799067       16.6885060750       39.8461844364
  H        -4.3096883427       17.7204743229       39.6848195315
  H        -4.7419366031       16.2800154058       40.5024843097
  C        -2.7167189640       16.7632409272       40.6508655882
  H        -2.7181191089       17.7470645871       41.1602602116
  H        -2.6432031906       15.9589777981       41.3736195917
  H        -1.8697266618       16.7182139952       39.9917330750
