352
 i =    21100, time =    21100.000, E =        24.6049414426
  H        11.1648080741        7.4529621053       32.8478009771
  C        11.3121360023        6.5358022493       32.3286501610
  H        12.2206186508        6.7051797776       31.7048986134
  C        10.1492715195        6.1751281160       31.3891487785
  C        11.6958955162        5.5436739709       33.3935594251
  C        10.7541323254        5.6000708644       30.1202002565
  H         9.5453928869        5.3854951806       31.7863191198
  H         9.6152181105        7.0858353840       31.2534710199
  H        11.9756838036        4.6313663708       32.8948990342
  H        12.4662335285        5.8062738688       34.0807969808
  H        10.8984381627        5.2634021606       34.0462709064
  C         9.7698916199        5.6634547172       28.9731962133
  H        11.1498491369        4.5802258795       30.3602293190
  H        11.5498233710        6.2301195627       29.7626157310
  C        10.4467007234        5.4713642051       27.6331424287
  H         9.0581138779        4.8304629045       29.1677721189
  H         9.2432313044        6.5731806138       28.8687003935
  C         9.6674457142        4.8800782542       26.5122928119
  H        11.3976837168        4.9520161724       27.9078291052
  H        10.7516803487        6.4707097738       27.3350396656
  C         8.4976717340        5.7440604189       25.9900577211
  H        10.2831673920        4.7611653865       25.6327004160
  H         9.2825121352        3.8643941079       26.8843253070
  C         7.2735912254        5.0102954738       25.3775773563
  H         8.1032714581        6.5000742206       26.6683778564
  H         8.8878901463        6.2647081625       25.1186602516
  C         6.9377147033        3.6439754376       26.1089758584
  C         7.6319665629        4.1882621699       24.1005006207
  C         6.0298735668        5.9021293781       25.1681568328
  C         7.1241539618        2.5428077950       25.3147948477
  C         6.4346804874        3.3116737005       27.3790150893
  C         7.5673632548        2.8305323348       24.0514836981
  C         7.9822788525        4.7668977838       22.9015732985
  H         6.3067957230        6.6953648505       24.5305440301
  H         5.7272061170        6.3986827798       26.1036702233
  C         4.7975876333        5.2267792677       24.5567356446
  S         6.6217017919        1.0413775275       26.1119787015
  C         6.2758958045        1.9311411140       27.5299494803
  H         6.2184006387        4.1061907837       28.0903436296
  C         7.9934581537        2.1674589549       22.9274754836
  H         7.9472874599        5.8125635265       22.8287030259
  C         8.1993005694        4.1300360832       21.7047796338
  H         4.9321797458        5.1376275494       23.4877930777
  H         4.5882347222        4.1975695225       24.8715391473
  C         3.5183306158        6.0862459579       24.5001799662
  C         5.8233630264        1.2334653383       28.7880436984
  C         8.3769738392        2.7864582475       21.6987917112
  H         7.9814591921        1.0786280738       22.8558335901
  C         8.6680419187        4.4928791288       20.4817300730
  H         2.7776950424        5.7063546767       23.7746040664
  H         3.7119273585        7.0698460136       24.0807526593
  C         2.7956990808        6.1157999089       25.8139332127
  C         5.7657522489       -0.2014266317       29.0419971443
  C         5.3290170959        2.0435933106       29.9032981950
  C         8.7972055470        2.0467748552       20.5006170661
  C         9.0789518239        3.3796764964       19.7554874475
  S         8.9349858469        6.0265558881       19.7226215008
  H         2.1008142741        6.9314867339       25.5941433331
  H         3.4212437270        6.4823917949       26.6070863290
  C         2.1216456251        4.7470507336       26.0696153861
  N         5.9652269093       -1.2602714543       28.1261805952
  C         5.4262677251       -0.7537170829       30.2458888401
  C         4.9984488275        1.4426677655       31.1096643398
  H         5.3814336993        3.0854956140       29.8934794013
  C         7.6665007570        1.1941018024       19.8005764349
  C        10.0930532563        1.2621848964       20.7657125205
  C         9.4849338616        3.7992896896       18.4615099077
  C         9.4436757478        5.1835145715       18.2798553212
  H         1.6036496918        4.2780559578       25.2445208655
  H         2.9962436662        4.2221788588       26.3919999442
  C         1.2021635003        4.8916447237       27.2040809545
  S         5.8855713858       -2.7214092929       28.8358039182
  N         5.4483368979       -2.1636720049       30.3117438308
  C         5.1302077818       -0.0004636382       31.3599722521
  H         4.7936061134        2.1029371525       31.9322169430
  H         7.2524694708        0.4933817450       20.5743992023
  H         8.0929621750        0.5770192853       18.9872667118
  C         6.4471054450        1.9575743514       19.1127956460
  H        10.2781714500        0.6191837924       19.9190895938
  H        10.0362212654        0.6519957967       21.6811123578
  C        11.3629247222        2.1307425605       20.8775804974
  H         9.6501910150        3.0369786252       17.7248217024
  C         9.7175473909        5.9388605584       16.9929632640
  H         0.4739697652        4.0181604902       27.0838430308
  H         0.5304641789        5.7772372443       27.0614435835
  C         2.0447561564        5.0429678439       28.5343993749
  C         4.8470229747       -0.6395861037       32.6262515412
  H         6.8464557504        2.2741416890       18.1415627938
  H         6.1578345120        2.7879177107       19.7252172148
  C         5.2491965543        1.1033240687       18.8804792680
  H        11.2890906283        2.7151579068       21.8000250848
  H        11.6220806905        2.7551962209       20.0956097750
  C        12.6923912601        1.3373966382       20.9198112381
  C         9.7962549377        7.3293877261       16.8011966599
  C        10.1630958835        5.0907767106       15.8910305273
  H         2.7201247147        4.2284635418       28.7581122220
  H         2.7065892071        5.8956089705       28.4993042262
  C         1.1547360487        5.1183812266       29.7279419848
  H         4.8640391709       -1.7434406731       32.5707688813
  C         4.5626142620       -0.1811167050       33.8926274718
  H         4.9500882288        0.6029137981       19.7818830950
  H         5.5100665658        0.3159330125       18.1405330067
  C         4.0940881213        1.8714041293       18.3032704570
  H        12.6222325525        0.5334984691       21.7068296624
  H        12.6232213251        0.7727190699       20.0348462806
  C        14.0870042767        2.0566872262       20.8749597730
  N         9.6480057258        8.3404526375       17.7457440392
  C        10.1533632327        7.8641101700       15.5948909254
  C        10.5376569785        5.6354089716       14.6415602706
  H        10.1235101419        4.0385625994       15.9086963353
  H         0.1125120393        5.5032531966       29.6230289698
  H         1.0893053798        4.1567989939       29.9981224245
  H         1.5912362967        5.6903865305       30.5271255398
  S         4.3161947715        1.3874796621       34.4716364863
  C         4.4091258485       -1.2640334261       34.8881990865
  H         3.9381834768        2.6349917552       19.0340806732
  H         4.4076100116        2.4045611106       17.2976839244
  C         2.7370012566        1.2220644543       18.1997050496
  H        14.0782159048        2.7706014034       20.1136682385
  H        14.8624782297        1.3577510384       20.5742559424
  C        14.4023999440        2.6919376445       22.2534977882
  S         9.7810911104        9.8150653470       17.1308537352
  N        10.1113775424        9.2672719639       15.6111932651
  C        10.4347156817        7.1055682754       14.4817086748
  H        10.7530684435        4.9189589928       13.8783357036
  C         4.2097629655        0.5980188954       36.0488695176
  N         4.1170031750       -0.7065940158       36.0499820201
  O         4.6320221188       -2.4700862398       34.6815771762
  H         1.9643790991        1.9846347609       17.8903784690
  H         2.5040177010        0.8519368788       19.2260828685
  C         2.6866991682        0.0048643781       17.3016403937
  H        15.0216607725        3.5768547309       22.2210971556
  H        13.5043714658        2.9892039112       22.7607576071
  C        15.0568730352        1.6164935833       23.1263275586
  C        10.7791665525        7.7501305349       13.2704641829
  S         3.9458407893        1.3999601068       37.5959633075
  C         3.9521439216       -1.6016769250       37.2494850324
  H         2.1407082111        0.1996905033       16.4630892819
  H         3.6852672923       -0.3235897678       16.8911024580
  C         2.1058153237       -1.1461496983       18.0950375615
  H        15.3553955939        0.7821298601       22.5044223670
  H        14.4162981149        1.1856992453       23.9187031520
  C        16.3995493783        2.0731376665       23.7196606564
  H        10.5357943344        8.7778484068       13.3241978068
  C        11.4474703115        7.3666801966       12.1366850516
  H         3.3514325808       -1.1619523343       37.9804587513
  H         3.3596976632       -2.5047797314       36.9455491005
  C         5.3662386080       -1.8344481863       37.8406740184
  H         1.1088711459       -0.8772230398       18.3456183897
  H         2.5372391988       -1.2860257526       19.0754296588
  C         2.0378307005       -2.4285222452       17.2761802977
  H        16.2075769945        3.0701004218       24.1324567675
  H        16.6042200402        1.4125337822       24.5598289454
  C        17.5181536947        2.1509849522       22.5940488502
  S        12.1354475443        5.8929404630       11.7977246087
  C        11.5060595560        8.4485799857       11.0716253448
  H         5.5306719566       -1.1204053831       38.6350474489
  H         5.6379598433       -2.8160195819       38.2071103749
  H         6.0872870155       -1.7411786844       37.0340816494
  H         1.4480860584       -2.3415421404       16.3555850692
  H         1.6201923601       -3.1856236830       17.9564453297
  H         3.0058227793       -2.6576051226       16.9067140786
  H        18.5114479579        2.1887332104       23.0235623040
  H        17.5384796662        3.1142213092       22.0325350500
  H        17.3803478626        1.2949474557       21.9682770888
  C        12.6144986496        6.6530754681       10.2811641994
  N        12.2849729912        7.9497595478       10.1426432919
  O        11.1246677367        9.6389682961       11.2203412951
  S        13.8277658552        5.9395902121        9.2405693663
  C        12.5377601594        8.6188534955        8.8970808988
  H        12.4833927443        9.7262660415        9.1453813941
  H        13.5282923403        8.5168551916        8.5378678704
  C        11.3981979751        8.2909049957        7.8648140875
  H        11.6709547222        8.6829790661        6.8571089956
  H        11.1293970911        7.2332724456        7.7906805411
  H        10.5561739705        8.8483169731        8.1163670745
  H        -3.1579025670       14.9522529485       16.0744384230
  C        -3.3007992381       13.8988880081       16.2078108670
  H        -4.3499155287       13.8245040387       16.5402475248
  C        -2.3403786503       13.4126461908       17.1915519602
  C        -2.9603472612       13.2049024186       14.8411350000
  C        -2.5556114608       14.1095044373       18.5369622162
  H        -2.7614493843       12.3392103059       17.2355068582
  H        -1.3383707786       13.4557926213       16.8624690153
  H        -2.8011787636       12.1337406623       14.7882864787
  H        -3.7793637289       13.4632539150       14.1612681195
  H        -2.1710588174       13.6261339433       14.2251064390
  C        -1.6690040693       13.4378785841       19.5435776080
  H        -3.5399549920       14.1446497301       18.8400797237
  H        -2.1928769076       15.1079372159       18.6408476074
  C        -2.2352995275       13.4288008383       21.0000249931
  H        -1.6272995252       12.3307199762       19.3235690015
  H        -0.7392102622       13.9473968577       19.5227026788
  C        -1.3220992272       12.8522158265       22.1061911090
  H        -3.1276759567       12.7649738422       20.9735724880
  H        -2.5530720343       14.4091481215       21.3342224766
  C        -0.0811722854       13.7540464629       22.4591111528
  H        -1.9402964138       12.6733991567       23.0207271534
  H        -0.9526971162       11.9157004788       21.6907963797
  C         1.0154292381       13.0001167475       23.2546703683
  H         0.2460995630       14.1787774634       21.5394982225
  H        -0.3576673841       14.6108182214       23.0789467032
  C         1.4234745981       11.6803961119       22.5966093728
  C         0.5575277145       12.2500858218       24.5004483826
  C         2.2968127419       13.8300447692       23.2828102437
  C         1.0858359387       10.5186292286       23.2797938881
  C         2.0070948456       11.4108836112       21.3676682168
  C         0.5549814689       10.8592869537       24.4806555717
  C         0.1068400514       12.8789293236       25.6485666194
  H         2.4900439534       14.2121869427       22.2998054668
  H         1.9308822692       14.6760700425       24.0317573580
  C         3.5275237340       13.2059965332       23.9538356120
  S         1.5561688476        9.0512220249       22.5096116572
  C         2.0990705919       10.0170740813       21.1537459277
  H         2.2568198333       12.2513381001       20.7348894894
  C         0.0406538270       10.1642549663       25.5705733994
  H         0.2775505993       13.9327703552       25.7404518099
  C        -0.3856405419       12.1372303397       26.6883958774
  H         3.7986215205       12.2257208648       23.6284826331
  H         3.4079170606       13.2013925799       25.0537948681
  C         4.8405378524       14.0996657922       23.7981885348
  C         2.5278740678        9.3249044163       19.8860983967
  C        -0.3962414092       10.7870635346       26.7076366357
  H        -0.0126206163        9.0737068864       25.3867737811
  C        -0.8467477005       12.5034142372       27.8687808719
  H         5.6353294336       13.6261838284       24.4968914983
  H         4.4910404589       15.0926446854       24.1760274881
  C         5.4797599745       14.2288709009       22.4187785899
  C         2.4814148727        7.9131656841       19.5690806524
  C         2.8425904390       10.1773580574       18.7092549831
  C        -0.8404147289       10.0329460458       27.9401018466
  C        -1.0375861696       11.3886901619       28.6785345961
  S        -0.9650841723       14.0193063789       28.6477848704
  H         6.1345621727       15.1077673590       22.3993721480
  H         4.6630692967       14.4474507942       21.7332384125
  C         6.1333803727       12.9342216949       22.0673580133
  N         2.2502166015        6.8869264544       20.5303491351
  C         2.6270448952        7.4210015261       18.3113725417
  C         3.1338582504        9.6548310749       17.4763688577
  H         2.9291466183       11.2498976639       18.7978002789
  C         0.2868489565        9.1671313284       28.5955268320
  C        -2.1680087813        9.2366446789       27.8032581805
  C        -1.3760294483       11.8120280570       29.9537006980
  C        -1.3829179942       13.1928283310       30.1297531764
  H         6.7815244062       12.5253288349       22.8957249229
  H         5.3542706788       12.2141433702       21.9920373895
  C         6.9171316119       12.9323942379       20.7106950834
  S         2.1774426898        5.4636736995       19.7538650429
  N         2.5540063081        6.0317716696       18.2534179772
  C         2.9295120464        8.2022245138       17.1470450684
  H         3.3529154541       10.3364062901       16.6654767755
  H         0.5693831462        8.3741460684       27.8730396447
  H         0.0441365878        8.8005593187       29.5572589948
  C         1.6377891792        9.9077739532       28.8771706438
  H        -2.0044112512        8.6016396498       26.9577106551
  H        -2.3484390184        8.5010604575       28.5861702584
  C        -3.3375278249       10.2247355115       27.5866518774
  H        -1.4781397494       11.1298547835       30.7375470233
  C        -1.5643918263       13.9964909726       31.3915130578
  H         7.5252099298       12.0142187384       20.5702962545
  H         7.7016102977       13.7176909090       20.7248316931
  C         5.9488470493       13.1428504460       19.5125765652
  C         3.1041835801        7.5700933321       15.8444283111
  H         2.1009786334       10.4218344894       28.0182434796
  H         1.4183496482       10.7911141256       29.5146210303
  C         2.6393359858        9.0001513138       29.5602081742
  H        -3.1938928530       10.8334876122       26.7434761576
  H        -3.5102009999       10.9282530478       28.4065589975
  C        -4.6081044267        9.4878721420       27.2076611681
  C        -1.5386407113       15.4335182256       31.5318759046
  C        -2.0441476129       13.2846236879       32.5779566570
  H         5.3546374043       12.2467065434       19.4779357465
  H         5.2183948850       13.9082528050       19.7270818950
  C         6.7160706220       13.4180274063       18.1777659865
  H         3.0684958313        6.4766624066       15.8125740557
  C         3.4261285300        8.0270777415       14.5743279219
  H         3.0557709396        8.4290324370       28.7355440982
  H         2.1078365101        8.2537807828       30.2238651140
  C         3.6413118428        9.8529939476       30.4132814477
  H        -4.5190921861        9.3961815017       26.1201033292
  H        -4.6217168400        8.5089828447       27.7783138060
  C        -5.9348335223       10.1700353334       27.4758356898
  N        -1.0647459979       16.3918842253       30.5387911482
  C        -1.8885200291       16.0784628973       32.6985423284
  C        -2.1920854744       13.9611812449       33.8226038848
  H        -2.1869645525       12.1999159940       32.5681587393
  H         7.2560664029       12.5091883789       17.7295061421
  H         6.0154870399       13.6066946620       17.3414715676
  H         7.4240762237       14.2822353443       18.2446216732
  S         3.6917397176        9.6805013619       14.0866193427
  C         3.6394057652        7.0188266869       13.4967377307
  H         3.7828090903       10.8669961190       29.9732229173
  H         3.1167470694        9.9412626918       31.3847644500
  C         5.0096711762        9.0639800966       30.5479998672
  H        -5.8671187080       11.2710425850       27.2952350711
  H        -6.2638434165        9.9739801328       28.5476127432
  C        -7.1007446442        9.5923708357       26.6471187622
  S        -1.3260676233       17.9362330633       31.0189571961
  N        -1.7203970321       17.5250602390       32.5312348966
  C        -2.1439081060       15.4196785707       33.9342641398
  H        -2.5214861025       13.3867333635       34.6351726640
  C         4.2367468540        9.0569359517       12.5440259210
  N         4.1974556409        7.7019533577       12.4347030965
  O         3.5623602355        5.8477118488       13.7022330505
  H         5.5387223134        9.4676305839       31.4085035419
  H         5.7344264770        9.3364520227       29.8241594725
  C         4.9018433961        7.5402941367       30.6651686697
  H        -6.7376591773        9.3466264747       25.6788010835
  H        -7.3222856007        8.5945175824       27.0122283815
  C        -8.3751723571       10.4888455660       26.6309360920
  C        -2.4457235697       16.2176104365       35.0380572198
  S         4.3472009816       10.0004324359       11.0773179055
  C         4.4909261412        7.0008026116       11.1499302919
  H         3.8377273905        7.3074453665       30.8592177578
  H         5.1504579424        7.2363835243       29.6281443496
  C         5.9973305839        6.9173616865       31.6154919695
  H        -8.2916258892       11.5421141060       26.3160490056
  H        -8.6647069797       10.5057878506       27.7217088810
  C        -9.3476824496        9.7285031309       25.7604506244
  H        -2.2788148062       17.2369877018       34.8436418602
  C        -2.9973273296       15.8612419878       36.2112095560
  H         5.2280808013        7.5547673167       10.5907360616
  H         4.9782702786        6.0782546214       11.3520015872
  C         3.1252399498        6.8118021338       10.4429272241
  H         6.0624418195        7.3920128618       32.5969819551
  H         6.9445160889        7.1523301902       31.0389103609
  C         5.7085596719        5.4946313589       31.7371199599
  H        -9.2447233971        8.6459107486       26.0060292240
  H       -10.3197510728       10.1303293603       25.9346971883
  C        -9.0505387402        9.8545217730       24.2869682403
  S        -3.6806172816       14.3279244604       36.7439304182
  C        -2.9435644844       16.8674865095       37.3181570756
  H         3.1544041262        7.2110740386        9.4175745807
  H         2.9334046842        5.7432331528       10.3065153178
  H         2.2627383062        7.2409538093       10.9644064391
  H         5.2406127829        5.1252337958       30.7923798075
  H         4.8993533391        5.3159243512       32.4699112632
  H         6.6380729250        4.9091121957       31.8568673015
  H        -8.8973967115        8.9132284195       23.7097504113
  H        -8.2091454264       10.5198061197       23.9836477621
  H        -9.8785185958       10.4211905015       23.7687127380
  C        -3.9739475596       15.0614790963       38.3368876025
  N        -3.5527854478       16.3687132159       38.4466627712
  O        -2.5026871166       17.9752873550       37.2623550446
  S        -4.6779440512       14.3310350884       39.8394322160
  C        -3.5860589792       17.0533169523       39.6790033599
  H        -3.7116172503       18.1437786487       39.4326126331
  H        -4.3966891689       16.9408244749       40.4478220687
  C        -2.2668765836       16.9168854265       40.4174310399
  H        -1.5697941951       16.1424833479       40.1001084420
  H        -1.5943689852       17.7557348667       40.1567489509
  H        -2.3324155129       16.9377650558       41.5117053525
