352
 i =    85700, time =    85700.000, E =        25.1016777455
  H        11.0839316675        8.0605820618       31.4106146396
  C        11.9142681999        7.4742570107       31.7469160304
  H        12.7328788733        8.0795441518       32.1294107876
  C        12.5761526560        6.5564523836       30.7163655146
  C        11.2112949681        6.7144044146       32.9129926251
  C        11.6066121423        5.6856502440       29.9242627621
  H        13.1422095031        7.1422668437       30.0015294806
  H        13.3030596275        5.9927502216       31.2899310802
  H        11.3208500579        7.3253740723       33.8217320533
  H        10.1956623268        6.4268871792       32.7030766979
  H        11.8059254141        5.8330349972       33.1294658156
  C        10.5589054576        6.2916404751       28.9922397706
  H        11.1998920387        5.1150463519       30.7514973416
  H        12.1201065811        4.9377273950       29.3464511242
  C        10.7654454332        6.0465499501       27.4685938336
  H         9.4964240204        6.0682760108       29.2810912263
  H        10.6382895256        7.3112653618       28.9719151641
  C         9.7387660900        5.1364461808       26.7387312076
  H        11.7591834937        5.7571505533       27.4088749798
  H        10.7417017723        7.0908506720       27.1181500579
  C         8.5767514193        5.9852098043       26.2054969904
  H        10.2939150107        4.8582217459       25.8279659769
  H         9.5385640578        4.2387022460       27.3725593378
  C         7.5053059559        5.1445978440       25.5405501489
  H         8.1263597208        6.6448147879       26.9584338320
  H         8.9551241629        6.5934053494       25.4536114821
  C         7.2273796631        3.8775727679       26.1762637680
  C         8.1597933594        4.4527445076       24.3963737020
  C         6.1874975608        5.7773091607       25.0537535942
  C         7.5467341071        2.7426779829       25.4836215446
  C         6.7717438308        3.5910242589       27.4940282465
  C         8.1110778379        3.0752861377       24.2508864167
  C         8.6171105372        5.1584038445       23.3013390707
  H         5.5913201267        5.1453680278       24.4480418942
  H         6.4040003409        6.6316751350       24.4424569125
  C         5.1478586443        6.2277906049       26.0867296922
  S         7.1077133234        1.2950649841       26.3098624012
  C         6.6316555877        2.2273521647       27.6771311744
  H         6.6548683004        4.3726113210       28.1732981777
  C         8.5044880101        2.4663687796       23.0896311777
  H         8.5519867618        6.2130115253       23.3294565114
  C         8.9970183805        4.5172569280       22.1485418996
  H         5.2223155721        5.6644738035       27.0567927484
  H         5.5248627815        7.2715262590       26.4036357601
  C         3.6726515095        6.2346605996       25.5897194125
  C         6.1700123589        1.6313591424       28.9830591699
  C         8.9762655040        3.1982582050       21.9760137179
  H         8.4317077920        1.4279736591       22.9304802734
  C         9.4035636073        4.9636419575       20.9301883747
  H         3.4020928462        5.2961991824       25.1424354171
  H         3.5262398391        6.9413700464       24.7898166608
  C         2.6302484126        6.6218463727       26.6797024249
  C         6.1191181014        0.2651739516       29.3253674064
  C         5.7835676296        2.6489692896       30.0540586542
  C         9.3489573541        2.5249946470       20.7522594789
  C         9.6381176358        3.8939384702       20.1021713210
  S         9.5955507200        6.5349708417       20.2308313057
  H         1.6850693450        7.0147179789       26.2855496536
  H         3.1700152800        7.3280788412       27.2224702549
  C         2.2700366750        5.3599000961       27.4354183104
  N         6.3911444280       -0.8248595411       28.4614322976
  C         5.7099392104       -0.1880257548       30.5624643662
  C         5.3332575475        2.1732987191       31.2822951075
  H         5.9014707604        3.7064921500       29.9367752701
  C         8.1449210761        1.6250708799       20.1404762222
  C        10.5447475179        1.6635207791       20.9916420306
  C         9.8529016553        4.3318738192       18.7953566814
  C         9.9199512513        5.6804925668       18.7446374115
  H         1.8989199329        4.6125972618       26.7330993774
  H         3.1544961437        5.0046818877       27.8879838433
  C         1.2926079503        5.6055232604       28.6173825600
  S         6.3665813205       -2.2354646509       29.2820851649
  N         5.8365581433       -1.5811439499       30.7078580350
  C         5.3756544513        0.6758711057       31.6462539471
  H         5.1822944424        2.8743537501       32.1283283411
  H         7.8009283638        0.8385897353       20.8640038110
  H         8.4985430335        1.0186442274       19.2811438903
  C         6.8700728178        2.4904670067       19.8669196765
  H        10.8369009866        1.0180834415       20.1877632561
  H        10.3322988983        0.9606802724       21.7605701989
  C        11.7615182983        2.4584692266       21.4303807074
  H        10.0042395430        3.5335416554       18.0529803349
  C        10.2127879870        6.3903320670       17.4034971028
  H         0.8149879844        4.6994281290       29.0058342715
  H         0.4530060418        6.1919573541       28.2205198351
  C         1.7400418402        6.4322934097       29.8354793691
  C         5.2142510489        0.0904921271       32.9291051448
  H         7.1372717594        3.2891687385       19.1129952457
  H         6.5489303960        3.1164323043       20.7111892354
  C         5.8159789908        1.5641518344       19.3506886464
  H        11.5530914746        3.0460791051       22.3286850914
  H        12.0292272451        3.2035981253       20.6930334298
  C        13.0298332097        1.5781978416       21.5673658035
  C        10.2366116550        7.7499523973       17.2090346384
  C        10.3896718884        5.5236616459       16.2131624646
  H         2.4452852829        7.3118818352       29.5737846782
  H         0.9129193014        6.9681418004       30.2129267709
  C         2.4416531204        5.6025483450       30.9891168390
  H         5.4498131601       -0.9304493211       32.8568853036
  C         4.9175320810        0.5763784025       34.1543451773
  H         5.3600145925        1.0505520976       20.1599291143
  H         6.3628378000        0.8801059678       18.7346661249
  C         4.6388364435        2.2363383028       18.6505666667
  H        12.9589620483        0.9936035208       22.4590795962
  H        13.1283764469        0.9291426552       20.6620787297
  C        14.1855347513        2.5405034896       21.6983204057
  N         9.9564120480        8.7405138252       18.1730043653
  C        10.4755304697        8.3409009938       15.9900627469
  C        10.8759857501        6.1058585638       15.0038724013
  H        10.5184600426        4.4668858195       16.3169094597
  H         2.7553664537        6.2974177695       31.8080678228
  H         1.6385512851        4.9621482546       31.3276053013
  H         3.2317467868        4.8589358594       30.6571942354
  S         4.6124315063        2.1455868014       34.6317711413
  C         4.8622192126       -0.4250526787       35.2270415377
  H         4.5927797030        3.2858559138       19.0704592836
  H         4.8435038710        2.4531495379       17.5761404918
  C         3.2528822181        1.5223227465       18.8156347072
  H        13.8487554643        3.3711167349       22.3555654712
  H        14.2912828607        2.9925061226       20.7248224367
  C        15.4068303297        1.7529350378       22.1944838815
  S        10.0224639445       10.1858388084       17.5384332204
  N        10.3440634166        9.7553450373       15.9790099058
  C        10.7826635183        7.5724462543       14.8309730617
  H        11.1056725015        5.4279497591       14.1444393372
  C         4.4129637713        1.5773866190       36.2418847364
  N         4.5512738930        0.2285170240       36.3780846299
  O         5.2077263754       -1.5889311974       35.0330397092
  H         2.6185012461        2.3163977758       18.8517530021
  H         3.2501672529        1.1801397214       19.8569147651
  C         2.8715192510        0.4972324042       17.7443237930
  H        15.1742033335        0.9569197654       22.9905152237
  H        15.9694875988        1.3781496031       21.3148230019
  C        16.2529745447        2.7365836923       22.9837140796
  C        11.0949316937        8.3765681791       13.6366236471
  S         3.6559402771        2.4503497452       37.5272936038
  C         4.6569228130       -0.3523782156       37.6886461545
  H         2.2360221965        0.9842941204       17.0613728367
  H         3.7346073309        0.4132958374       17.0637041577
  C         2.5532417455       -0.8914318410       18.1157996995
  H        15.7292183459        3.0165095835       23.8609054802
  H        16.3389131585        3.6718637625       22.4479244610
  C        17.6528555589        2.1843588908       23.2008153906
  H        10.9171231064        9.4394020013       13.6929469650
  C        11.7303639124        8.0108479256       12.4788206129
  H         3.9262907545        0.0076221333       38.4248207227
  H         4.3648840200       -1.3587138018       37.5652693828
  C         6.1439773748       -0.2880491058       38.2701617626
  H         1.5140864974       -0.8815474519       18.0359990611
  H         2.7087248758       -1.0526119834       19.1501700070
  C         3.1079911804       -2.0184520397       17.1974430764
  H        18.1368284727        2.8303976123       23.9254663417
  H        17.5718496887        1.1510481151       23.5990498998
  C        18.4056062993        1.7742967008       21.9569376444
  S        12.2739714465        6.5297704793       12.0532654299
  C        11.8164879847        9.0464058300       11.4770894635
  H         6.5955565698       -1.2735729592       38.4388426742
  H         6.7524242357        0.2279424856       37.6070353308
  H         6.1726950060        0.2775343868       39.1644333946
  H         2.4818629900       -2.9307211086       17.1776053553
  H         4.1111061706       -2.3166398273       17.5372103998
  H         3.1281925152       -1.8100016201       16.1091625393
  H        19.4745043152        1.6959537326       22.0467329612
  H        18.2539828839        2.4773372380       21.1750936686
  H        17.9970611401        0.8370436422       21.5800348782
  C        12.8036811287        7.1888123790       10.5157033317
  N        12.5084469998        8.5368777784       10.4340577625
  O        11.4654495357       10.2226930122       11.6001440815
  S        13.6783982994        6.2838688801        9.3388441973
  C        12.8093780964        9.4576136528        9.3588367400
  H        12.7794206028       10.5681838846        9.6300654257
  H        13.8729490705        9.2302814598        9.0882942927
  C        11.9473980738        9.1068322133        8.2228737764
  H        11.0576737086        8.7116882728        8.6996060669
  H        11.7819685542        9.9304684938        7.6105717386
  H        12.4626870588        8.4768291410        7.5936236609
  H        -3.2580558123       15.1106885659       16.3582854857
  C        -2.8217295496       14.0806446523       16.3082746974
  H        -3.6981982965       13.4253639772       16.4096415563
  C        -1.8073834400       13.6525730720       17.3233979705
  C        -2.2182933294       13.7534025134       14.9925342011
  C        -2.2586060701       13.9245043117       18.7430905950
  H        -1.7011312516       12.5339126043       17.2232929867
  H        -0.8658959991       14.2091127387       17.1699542432
  H        -1.9003536758       12.6945986846       14.8099868475
  H        -2.8216529084       13.9710690078       14.1862945218
  H        -1.4095119829       14.4351811543       14.8713907449
  C        -1.4676231615       13.2077995964       19.8982429860
  H        -3.2972473170       13.7879450987       18.7919391119
  H        -2.0639912767       14.9969536437       18.9288737369
  C        -2.0166758469       13.7115516971       21.2729213248
  H        -1.7089643457       12.1217600344       19.7501720517
  H        -0.3814093104       13.3836502099       19.7402009911
  C        -1.0603813856       13.2859154225       22.4083552537
  H        -3.0021993869       13.2114432645       21.3814954765
  H        -2.2026367971       14.7589662420       21.2941255552
  C         0.2381648351       14.1010618677       22.5800062174
  H        -1.6320919700       13.1869853235       23.3601410438
  H        -0.8086227539       12.3040861553       21.9345884699
  C         1.4573408762       13.4131289078       23.2828185037
  H         0.6315527711       14.2678935419       21.5696640104
  H         0.0720865631       15.0279159894       23.1980168352
  C         1.7641247234       12.0392350843       22.5915904516
  C         0.9330793334       12.6580156649       24.5129590120
  C         2.7601475380       14.2581908701       23.3980389650
  C         1.6272777798       10.9002253596       23.4256192299
  C         2.0977807120       11.6361349969       21.2713863003
  C         1.1393103277       11.2952093448       24.6146077824
  C         0.4108506052       13.2700537645       25.7100753865
  H         3.0113183823       14.9416381582       22.4931510933
  H         2.4917151361       15.0674489221       24.1163058807
  C         3.9737364318       13.5015446837       23.9512765707
  S         2.1107080261        9.4212864887       22.6598675876
  C         2.3812316653       10.2953291987       21.1805130323
  H         2.1915268301       12.3796188943       20.4634503512
  C         0.6340204072       10.7165984040       25.7569152130
  H         0.3413645442       14.3329118755       25.6254200556
  C         0.0387915005       12.6820421507       26.8345327775
  H         4.2235469297       12.6080735367       23.4444498455
  H         3.7265690947       13.1549181678       24.9389971877
  C         5.1738952071       14.4334289912       23.9632310663
  C         2.8300373370        9.5466622790       19.9501254794
  C         0.0875644582       11.3579113875       26.8296573799
  H         0.6471903189        9.6396190153       25.8461492586
  C        -0.4567198083       12.9856983821       28.0941093594
  H         5.8711490477       14.1285697116       24.6985920090
  H         4.9124817728       15.3825470683       24.2963515072
  C         5.8618533916       14.5060107363       22.5861192154
  C         2.8678004278        8.1538078234       19.8231615304
  C         3.2474685683       10.3705449976       18.7976100072
  C        -0.1782548309       10.6247863250       28.1395850335
  C        -0.5813505531       11.9308631939       28.8994025084
  S        -0.7361930278       14.4819651433       28.9023639445
  H         6.7364780094       15.1118472975       22.8504987889
  H         5.2962934906       15.0763575324       21.8599207260
  C         6.4002245060       13.2357443100       21.9799940641
  N         2.3977745915        7.1997244073       20.7595910042
  C         3.2320092905        7.5510197954       18.6214897128
  C         3.5477042425        9.7992808013       17.5678179939
  H         3.3125198272       11.5016206861       18.8080443813
  C         1.0231859913       10.0157172954       28.8820030886
  C        -1.2900977921        9.5868727241       28.1516645404
  C        -0.9573092750       12.2416450057       30.1883811923
  C        -1.0168814653       13.6019447047       30.3677128586
  H         6.5528740245       12.4235058964       22.6892815991
  H         5.6322073780       12.8700873490       21.3783039519
  C         7.5319334795       13.2987199473       21.0006914650
  S         2.6699690477        5.6962959325       20.1875556871
  N         3.1396701206        6.1523364157       18.6739252493
  C         3.5351441762        8.2499496096       17.4324289516
  H         3.9019484934       10.5123420258       16.8432511157
  H         1.2420933654        9.0810658843       28.3820681293
  H         0.8766884365        9.7468816437       29.9376445173
  C         2.2954253079       10.9237509802       28.9256707874
  H        -1.1245231020        8.8989295485       27.3058329621
  H        -1.2821107683        9.0393309495       29.0733625160
  C        -2.5576625376       10.3109256325       27.6310097503
  H        -1.1494093580       11.5170223371       30.9374174220
  C        -1.3058069135       14.3360856155       31.6335810660
  H         8.2243162438       12.5011457185       21.1699447802
  H         8.1088492289       14.1406777303       21.2577888927
  C         7.1358433403       13.3945730766       19.5030564991
  C         3.6220026706        7.5645925857       16.1870145604
  H         2.5096573152       11.4414741416       27.9967797246
  H         2.0420980702       11.7468191407       29.6090121407
  C         3.4704677299       10.0215276795       29.2949543418
  H        -2.4646203972       10.6779825518       26.6072410722
  H        -2.8255428671       10.9925118326       28.3971842345
  C        -3.7929185662        9.4152265409       27.4575760220
  C        -1.3184833686       15.7472732366       31.7735002566
  C        -1.5402425765       13.5185138339       32.9231202647
  H         6.5321582344       12.4856971450       19.1950949355
  H         6.6687336686       14.3377028771       19.3385505515
  C         8.2976718484       13.5029791659       18.5864524076
  H         3.5325374608        6.5133452976       16.2048107659
  C         3.9493742136        8.0183759198       14.9369317917
  H         3.6195427103        9.3281389609       28.4738887147
  H         3.1705321565        9.4352267724       30.1206538594
  C         4.6751982129       10.7361778500       29.8691429457
  H        -3.6387637273        8.9141474479       26.4403320557
  H        -3.8571174760        8.7291303642       28.2301290433
  C        -4.9894200040       10.2813327987       27.3330854836
  N        -1.1472653841       16.6982953372       30.7613186138
  C        -1.5727428219       16.3833868717       32.9929852259
  C        -1.8250114432       14.1963509570       34.1053415906
  H        -1.5559717974       12.4347118593       32.8808682258
  H         8.5581196590       14.5746025714       18.5271554866
  H         9.1132874068       12.8889514612       19.0475533437
  H         8.0983418461       13.2272193918       17.6020986542
  S         4.2582629008        9.6424946069       14.4109229357
  C         3.9919344866        7.0094683737       13.8243481016
  H         5.2511451446       11.1531248635       29.0396245577
  H         4.3455623675       11.5825508875       30.4256522351
  C         5.6393316071        9.8443297471       30.6642232168
  H        -4.5831099061       11.2479155606       27.0364541623
  H        -5.4092290760       10.6114848465       28.3235610625
  C        -5.9432775436        9.9265123170       26.1622047844
  S        -1.1961315147       18.1698285090       31.4039657489
  N        -1.5704966016       17.7780332559       32.9644757174
  C        -1.8562416425       15.6403845346       34.1856465568
  H        -2.0681703336       13.6062768745       35.0371372853
  C         4.3417350185        8.9418896640       12.8085378622
  N         4.3719218483        7.6090280674       12.6704752801
  O         3.7162267385        5.7880655701       13.9867389259
  H         5.1519785918        9.7706809979       31.6725334938
  H         6.5312798260       10.3321213276       31.0237876163
  C         6.0590599610        8.4882730486       30.0847549999
  H        -5.5340933794        9.2891770617       25.4002053284
  H        -6.8361643874        9.3881310683       26.5217894653
  C        -6.3584917345       11.1846664206       25.3925461866
  C        -2.1899068774       16.4612925078       35.3209478803
  S         4.6641453119        9.8804921198       11.4014619203
  C         4.2804623257        6.9780989098       11.4168216485
  H         5.4465884741        8.2395378726       29.2431789050
  H         7.0157151425        8.5334145036       29.5862250662
  C         5.8990370875        7.3942840588       31.1141346145
  H        -6.3768311188       10.9829687445       24.3713631003
  H        -5.6626725033       12.0180492176       25.5198747721
  C        -7.7694552593       11.6049215263       25.8667951976
  H        -1.8827938551       17.4730263021       35.3732028221
  C        -2.6968362362       16.1435481118       36.5714547859
  H         4.9024134418        7.3820526305       10.6435826774
  H         4.6230997103        5.9676796790       11.5688794194
  C         2.8047046937        6.8594567786       10.9791090618
  H         5.5983760703        6.5763945316       30.5452571864
  H         5.0945733265        7.6293778716       31.7839120373
  C         7.2871763961        7.1300383351       31.8263182169
  H        -7.9272629675       11.5916737771       26.8972497809
  H        -7.8856321920       12.6619336657       25.6357217173
  C        -8.9000783610       10.8003416321       25.2383663789
  S        -3.3229951858       14.5622003885       36.9352375942
  C        -2.8539600460       17.1713295458       37.6353788470
  H         2.4945678876        7.5544452240       10.1509241087
  H         2.6968741461        5.8721523528       10.5583411943
  H         2.0876357992        6.9919409963       11.7283282507
  H         7.6230868008        7.9554650393       32.5260508941
  H         8.1582806480        7.0330705177       31.1283390539
  H         7.0776175502        6.2179682695       32.4796232610
  H        -9.7978352223       11.1182276223       25.6887829884
  H        -8.7778358190        9.7809157282       25.5602559516
  H        -8.7778855682       10.8964871998       24.1865038158
  C        -3.8235750313       15.2317034098       38.4769882344
  N        -3.6214300099       16.5519710750       38.6157963298
  O        -2.6686606548       18.3873830209       37.4648088880
  S        -4.6840513697       14.4166183124       39.8085600454
  C        -3.7765176978       17.3641031342       39.8860227562
  H        -3.6912571821       18.4695193371       39.7380175611
  H        -4.8002727331       17.1662464751       40.2636974741
  C        -2.7727947982       16.9040428579       40.9952482963
  H        -2.3732598038       17.7248570785       41.4570877068
  H        -3.2762559852       16.3658250065       41.8588933369
  H        -1.9050460120       16.3451024589       40.6399347434
