352
 i =    74000, time =    74000.000, E =        25.1898377935
  H        11.2101521345        8.0650271903       32.3484153187
  C        11.4600740693        6.9598334330       32.2707104579
  H        12.4451474657        6.8581518310       31.8157279395
  C        10.4759147699        6.4045259761       31.2594301404
  C        11.3775203292        6.2189503824       33.6676741719
  C        10.7162481700        6.7008438470       29.8332348150
  H        10.6170778042        5.3741776891       31.3577757142
  H         9.5141833151        6.7323799306       31.7092046869
  H        11.5395482762        5.1891601047       33.4234257932
  H        12.1351398331        6.5559176499       34.3376787653
  H        10.4477677192        6.3771743864       34.1914692072
  C        10.0218668641        5.7098516209       28.8365307759
  H        11.7809568968        6.5646649229       29.7609117416
  H        10.4731718670        7.7043688895       29.6992346834
  C        10.6447761982        5.6974872428       27.4270577644
  H        10.2357058053        4.7422028698       29.2780489204
  H         8.9305325221        5.7306494410       28.8353803897
  C         9.6561529236        5.0881032419       26.4066151265
  H        11.4112893155        4.9738015869       27.4804164349
  H        11.1108879000        6.6732794262       27.0721695153
  C         8.3554831279        5.9163681956       25.9676566570
  H        10.2237341285        4.9196489945       25.4990493954
  H         9.2844437304        4.0784713325       26.7359174926
  C         7.2610983758        5.0684887822       25.2619637590
  H         7.8697047561        6.3952291919       26.7737149317
  H         8.7474767558        6.6733384185       25.2867903622
  C         6.8651279929        3.7630978437       26.0164874945
  C         7.7831777254        4.2017538106       24.1337693780
  C         5.9995730594        5.7760234158       24.7101972193
  C         7.2996972739        2.5783991380       25.4136778477
  C         6.3744045024        3.4535434192       27.3150133268
  C         7.8378318781        2.8475261830       24.2200013831
  C         8.1402885471        4.8113768538       22.9391964310
  H         5.4936518098        4.9872988056       24.0841751708
  H         6.2282160675        6.5632869431       23.9990252281
  C         4.9529211630        6.2812052912       25.6345322136
  S         7.0660265640        1.1459093689       26.2752307245
  C         6.3840793541        2.1131688465       27.5900847618
  H         5.9157784238        4.1526052880       27.9213915411
  C         8.1662646531        2.2295761468       23.0602125638
  H         8.2032215222        5.8651701199       22.7876660599
  C         8.5390299256        4.1338109185       21.8778014505
  H         4.8667574048        5.7218195358       26.5707816126
  H         5.2794089228        7.2853320680       25.8464384147
  C         3.6000380013        6.5365356316       25.0330965989
  C         6.0461271200        1.4625029966       28.8451767737
  C         8.5894515553        2.8087686772       21.7749095144
  H         8.1177252782        1.1156920439       23.0310810558
  C         8.9165326872        4.5195862600       20.6268926123
  H         3.3480993001        5.7492624787       24.3453571695
  H         3.7568126041        7.4504314677       24.4212873528
  C         2.3232569547        6.6701712404       25.8687936695
  C         5.9795013927        0.1041555154       29.1371091403
  C         5.6769316087        2.3288778059       29.9796586337
  C         8.9133210436        2.0572458603       20.4628688591
  C         9.0812871760        3.4514148132       19.7725871779
  S         9.1339735397        6.0931404153       19.9178087810
  H         1.4847350167        6.6412557875       25.1696309667
  H         2.2272892945        7.5757437646       26.3462416977
  C         2.0843595726        5.5228726291       26.7533503356
  N         6.0175679915       -0.9186424678       28.1856140794
  C         5.6868159758       -0.4158338144       30.4166653377
  C         5.4027355227        1.8578753493       31.2900787708
  H         5.7731467260        3.4176879517       29.8444713535
  C         7.6575129206        1.3269556425       19.9117342534
  C        10.1845146345        1.1591533358       20.7116421427
  C         9.4410445832        3.9704811903       18.5237044674
  C         9.4363585848        5.3283921472       18.3939584927
  H         2.3862447619        4.6106191703       26.1966463001
  H         2.7782734327        5.4062763415       27.5983448908
  C         0.6694239393        5.3585943668       27.2274645798
  S         5.9319932545       -2.3815706399       28.8984577826
  N         5.7266919463       -1.8111263961       30.4171381847
  C         5.3508392708        0.3691860961       31.5251099289
  H         5.2203233389        2.5440793934       32.0801881476
  H         7.1320477047        0.6872154526       20.7316617002
  H         7.9388252999        0.6945074233       19.0880064609
  C         6.6290906164        2.3546532165       19.6270114070
  H        10.2963778338        0.5519770600       19.7670195062
  H        10.1035257736        0.4099288483       21.5059107830
  C        11.4310129209        2.0859428182       20.8691802381
  H         9.6767341357        3.3231162917       17.6707998280
  C         9.7373532779        6.1004643316       17.1962688632
  H         0.0312882303        4.9441734702       26.4507068994
  H         0.3216531497        6.3746495713       27.5075549927
  C         0.5673502444        4.5087009918       28.4851817913
  C         5.0758459669       -0.2680958319       32.7565139482
  H         6.9509411427        2.9249196474       18.6935435841
  H         6.4158519324        2.9967564111       20.4649413803
  C         5.2307014587        1.7478512327       19.3169567480
  H        11.2475416724        2.8276272335       21.6194864155
  H        11.7266009610        2.5853323814       19.9626943414
  C        12.7163983530        1.2836771788       21.4180004605
  C         9.9050113038        7.4948036546       17.0856472686
  C         9.9640824860        5.3608594859       15.8494226983
  H        -0.2708285738        3.8947752632       28.7067000915
  H         1.2645945071        3.7019624738       28.3540911755
  C         0.8253192473        5.2313807837       29.7268656306
  H         5.1035230142       -1.2877588287       32.6984994636
  C         4.8564625426        0.2474351084       34.0419021443
  H         4.4911588975        2.5616792186       19.2782994086
  H         4.9265199662        0.9890675954       20.0518922240
  C         5.1526993073        1.2694447284       17.8524207861
  H        12.4722819098        0.6892179947       22.3162697247
  H        13.0742170218        0.5292291440       20.7176151773
  C        13.8966008849        2.1565047665       21.9195723125
  N         9.7783083772        8.4923566648       18.1067868192
  C        10.0832635165        8.0499063571       15.8426762286
  C        10.2686009695        5.9426637983       14.6763161460
  H         9.8917142080        4.3061588590       15.8437727067
  H         1.7230067981        5.7677828169       29.6521629447
  H         0.1698089498        6.1024647842       29.8062547192
  H         0.6924127254        4.6922269019       30.6256504833
  S         4.4754627942        1.8404303842       34.3443792255
  C         4.6574103233       -0.7005127670       35.1290936864
  H         5.3916249582        2.1066401011       17.1601082137
  H         5.9166539214        0.4730627001       17.6447744425
  C         3.7133491292        0.7861958125       17.5828628192
  H        13.4507725271        2.9742829575       22.4458693315
  H        14.4030511994        2.6044225999       21.0334576002
  C        14.9845684854        1.4725490495       22.6966735548
  S         9.8414481389        9.9834743318       17.3999485215
  N        10.1715472338        9.4556623127       15.8833162244
  C        10.3066477179        7.4199234492       14.6243708599
  H        10.3045022265        5.2956609878       13.7699875270
  C         4.2423637465        1.3129638623       36.0225894550
  N         4.3413644959        0.0061508329       36.2238009808
  O         4.7147831061       -1.8973906158       35.0300506170
  H         3.3329627583        0.9642701952       16.6101622079
  H         3.0535762590        1.3449741115       18.3034094627
  C         3.5840042920       -0.7260832986       17.7238232111
  H        14.5244361444        1.1123057021       23.5876989758
  H        15.3901406209        0.6389720527       22.1656849524
  C        16.0610540270        2.5354123636       22.9021133637
  C        10.6378553750        8.1966401252       13.5168936136
  S         3.8291304954        2.4037823781       37.3443054698
  C         4.1503049719       -0.6902025338       37.4878903647
  H         3.9195625833       -1.2410875849       16.8493405782
  H         4.1530720157       -1.0996758957       18.4907419933
  C         2.0752570264       -1.1355047566       17.9183325495
  H        15.5061452634        3.4052924275       23.3894049746
  H        16.5137668072        2.8943175669       22.0390167082
  C        16.9624988791        1.9850132631       23.9198766237
  H        10.6169802783        9.2938563304       13.5960343555
  C        11.0453994796        7.8301957247       12.2434834621
  H         3.4515516829       -0.1420315019       38.1125276107
  H         3.7559096791       -1.6805684970       37.3024627480
  C         5.5206143000       -0.8522412712       38.2453665570
  H         1.4512055851       -0.1888207165       18.0190393772
  H         1.8030758315       -1.8081835838       18.6457844228
  C         1.5176376904       -1.8210104556       16.7022851933
  H        17.1188478049        2.8180176244       24.7017442028
  H        16.5321601893        1.1359198981       24.3562158496
  C        18.3373538831        1.6133316108       23.3354775202
  S        11.5630233395        6.2544892713       11.8273592886
  C        11.2307707848        8.8676271041       11.1684810259
  H         5.6027212505       -0.3319131057       39.1486746502
  H         5.6594988979       -1.8895294722       38.6569797356
  H         6.4373172228       -0.8733980672       37.7380121673
  H         0.6602829536       -1.2506243578       16.5003322574
  H         1.1703816187       -2.7819382676       17.0271398911
  H         2.0689415165       -1.8195513708       15.7642137642
  H        18.7661031336        0.9797071710       24.1036384213
  H        18.8554424533        2.5240950400       23.1106529727
  H        18.1884508276        1.0695083435       22.3520145867
  C        12.0273254667        6.9633321062       10.2466383495
  N        11.8262511167        8.2808260504       10.1572154055
  O        10.8376958167       10.0105325709       11.2592009525
  S        12.8829952399        6.1592361439        9.0175363585
  C        12.1863818598        8.8880877598        8.9027911876
  H        12.3713717832        9.8763903224        9.1979777140
  H        13.1215915824        8.6846503324        8.3994023199
  C        11.0763134806        8.5898338384        7.8353919296
  H        11.3338323579        7.8214861540        7.1538318732
  H        10.0683779699        8.3830809127        8.2382116377
  H        10.8253839356        9.4232065844        7.1808296532
  H        -2.9117550778       15.4545545320       16.4075119662
  C        -3.0063398946       14.3771402461       16.5380792730
  H        -4.0836875537       14.1637470633       16.6506285361
  C        -2.1237804873       13.8830005152       17.7159977944
  C        -2.5767138649       13.6596537966       15.2742775800
  C        -2.7820931852       14.1736455652       19.0456644827
  H        -1.8277266627       12.8780552746       17.7097624406
  H        -1.2347322005       14.5135654283       17.7846048325
  H        -2.9265145426       14.1771906353       14.3133057122
  H        -1.5146755591       13.5180097118       15.2339229099
  H        -3.0563979302       12.7246796505       15.1923982031
  C        -2.1643269299       13.3047772134       20.0560111763
  H        -3.8140901745       13.8595477130       19.0904908352
  H        -2.5852684157       15.1622473108       19.2835426686
  C        -2.3342628132       13.7545500507       21.4686683221
  H        -2.5296304813       12.3151801476       19.9354648679
  H        -1.0875322048       13.2288771940       19.7988162018
  C        -1.2908986706       13.0851024102       22.3731780604
  H        -3.2987703501       13.4724116759       21.7960758457
  H        -2.3637821369       14.8139793742       21.5949405467
  C        -0.0656013062       14.0464661411       22.5012520507
  H        -1.6415902303       12.9650357187       23.3539951068
  H        -1.1111340194       12.0819458416       22.0118297666
  C         1.0591182261       13.3208240356       23.2610300101
  H         0.3392520492       14.1346324025       21.5284239262
  H        -0.2788553557       15.0413869593       22.8339800795
  C         1.4044684640       12.0135679316       22.5729945383
  C         0.5573653219       12.5919627042       24.4777316745
  C         2.2294033596       14.2615513384       23.4412616867
  C         1.0797868579       10.8846977944       23.3495954088
  C         1.8206201081       11.5437664302       21.3133789951
  C         0.5324782172       11.2430899033       24.5369873508
  C         0.1593442378       13.2527329828       25.6418223450
  H         2.1984678799       14.9459285136       22.5846280964
  H         1.9484993281       14.8708591605       24.2556576549
  C         3.5241491946       13.5722278997       23.7164760834
  S         1.5237289540        9.3416062900       22.7047245981
  C         1.9176631108       10.1647710195       21.2083957643
  H         2.0958764815       12.2384456332       20.5265378166
  C         0.1068053774       10.6021413206       25.6605828370
  H         0.0969311960       14.3140955855       25.5826720530
  C        -0.1678790878       12.6323357503       26.7746588462
  H         3.6784053872       12.8575649249       22.8819640862
  H         3.4959812514       13.0571784018       24.6779882525
  C         4.6848664272       14.4725237995       23.6205657404
  C         2.3722535985        9.4649773776       20.0143722058
  C        -0.1706408950       11.2996529974       26.8357658941
  H         0.0972134214        9.4685444682       25.5182295203
  C        -0.4879626222       12.9904675436       27.9851707092
  H         5.3840795967       14.1438243445       24.3872984062
  H         4.4627099954       15.4270973979       24.0667542303
  C         5.4480855762       14.3805409204       22.2425381130
  C         2.2083983453        8.0800343554       19.7367014056
  C         2.8854284643       10.2507046797       18.8660189473
  C        -0.6022573397       10.5904201361       28.0532939890
  C        -0.7342259787       11.9060005357       28.7818189852
  S        -0.5515836947       14.4554384504       28.8630695853
  H         6.2430524668       15.1249449800       22.1319646975
  H         4.7515473077       14.8132497259       21.4567003141
  C         5.9922494772       13.0409634337       21.8727643901
  N         1.7843186178        7.0674766842       20.6456788536
  C         2.5565810693        7.4815665226       18.4761910225
  C         3.2409965917        9.6371080434       17.6598640176
  H         3.0960534483       11.2667021844       19.0348027377
  C         0.4843544605        9.7131055197       28.8048697732
  C        -1.9615022316        9.9491211079       27.8136939616
  C        -1.1456622840       12.2781360514       30.1004606726
  C        -1.1924476118       13.6649780966       30.2742975406
  H         6.4517634923       12.6078302273       22.7221694620
  H         5.1533767969       12.3849230635       21.5425285031
  C         7.1144235998       13.1117560226       20.8036197578
  S         1.9063116117        5.5964628766       19.9397939461
  N         2.5281072765        6.0442708629       18.5055679919
  C         3.0908222867        8.1495414723       17.3759706020
  H         3.6441986570       10.3341728994       16.8838112637
  H         0.8025063189        8.8392337571       28.1886254202
  H         0.0281037416        9.2479451591       29.6141060261
  C         1.7169950391       10.4734997411       29.2947471452
  H        -1.8122930934        9.0184889330       27.2146599266
  H        -2.3019527433        9.5298676226       28.7455731280
  C        -3.0442596106       10.8249047514       27.2141056162
  H        -1.5123202893       11.4917514010       30.7251519005
  C        -1.5628023247       14.3350896604       31.5515154742
  H         7.6212380486       12.1534520701       20.6563013069
  H         7.9761329496       13.7453741772       21.0447387494
  C         6.5962328468       13.4981677283       19.4417392051
  C         3.3619833887        7.4425314526       16.1392092611
  H         2.2091447645       11.0829474994       28.5876189230
  H         1.4482933874       11.0879316890       30.1737581424
  C         2.6968818880        9.4718005504       29.8916644912
  H        -2.7436971979       11.3243026530       26.2660162524
  H        -3.1688376611       11.6958318996       27.8816908962
  C        -4.3848515904       10.2028496401       27.1143139540
  C        -1.5809477793       15.7054703772       31.7486391908
  C        -1.7848149054       13.5157960248       32.7762755371
  H         5.7460891805       12.7902673678       19.2865632258
  H         6.1733711758       14.4990339649       19.5014798971
  C         7.4608253935       13.2698575259       18.2146829540
  H         3.5047374083        6.3419483718       16.2867952364
  C         3.6101950851        7.8299401043       14.8347956412
  H         2.6062710822        8.5935534040       29.2504933102
  H         2.3737865451        9.0932057925       30.8715850504
  C         4.1112592323       10.0968802130       30.0861544029
  H        -4.3472932312        9.4921395444       26.2826286087
  H        -4.6509477049        9.6068356085       28.0133868572
  C        -5.5877379171       11.1115996720       26.8774572453
  N        -1.3172176263       16.6757037267       30.7747406379
  C        -1.7761287817       16.2154580351       33.0241266059
  C        -2.1053931500       14.0066183750       34.0436374440
  H        -1.6457069881       12.4544670325       32.6422845031
  H         6.9145982960       12.9002778856       17.2625695650
  H         8.1481974677       14.0818889161       17.9478484637
  H         8.2742316472       12.5237418897       18.4094233720
  S         3.6637195540        9.4356346012       14.3241133418
  C         3.7229031542        6.8169529476       13.7668089941
  H         4.5719210934       10.3054560471       29.1227235320
  H         3.9971381509       10.9753241554       30.7274688759
  C         4.9270820995        9.1166589299       30.8715632319
  H        -5.3787537105       11.7559689035       26.0000831128
  H        -5.6894902621       11.8455700365       27.6646831498
  C        -6.8516758737       10.3940358219       26.7214478790
  S        -1.4026737711       18.1344077357       31.5118073297
  N        -1.7263571115       17.6469398971       32.9882911955
  C        -2.1543698272       15.4870327343       34.2061530930
  H        -2.3911221464       13.3103033492       34.8057909444
  C         4.0834707786        8.7554059998       12.7044466994
  N         3.9541837908        7.4165858148       12.5737788454
  O         3.6108056808        5.6084567829       13.9762143895
  H         4.2659412479        8.3084054333       31.2797620829
  H         5.5286956217        9.6347017873       31.5555266550
  C         5.8761122411        8.3393529470       30.0688017129
  H        -6.5372787786        9.2970081108       26.7004702757
  H        -7.3465729056       10.5174195777       27.6466208145
  C        -7.6221478092       10.7062561430       25.4922974061
  C        -2.4360633878       16.2038560229       35.3879351196
  S         4.3234831917        9.7199314680       11.2212822730
  C         3.9781492031        6.6779162572       11.2700051339
  H         5.3188273954        7.8403093091       29.2544329908
  H         6.5045254728        9.0551778261       29.4997806712
  C         6.7740434800        7.2361646304       30.7332235044
  H        -6.9927610678       10.6054131399       24.6592046303
  H        -7.9185039414       11.8134062842       25.4324070114
  C        -8.7815814941        9.8000040643       25.2701962242
  H        -2.0076370330       17.2261215560       35.5263947431
  C        -2.9169007004       15.8242939145       36.6148234032
  H         4.8837259581        7.0180402452       10.7480923103
  H         4.3860674205        5.6470555095       11.3561810679
  C         2.7052867842        6.8246863862       10.4308258760
  H         7.6679303014        7.7668906881       31.1048303661
  H         7.2058824497        6.5680998256       29.9975282628
  C         6.2063861735        6.3674566372       31.8629548564
  H        -9.2555196471       10.1939411066       24.3323571974
  H        -8.6630858525        8.7312614622       24.9029735322
  C        -9.9572958259        9.9005571415       26.3310689236
  S        -3.4072938637       14.2538029814       37.0784839516
  C        -3.0703613768       16.8821309685       37.6753437703
  H         2.3328475217        5.9036890592       10.0838220759
  H         1.9202415697        7.3338494424       11.0355484325
  H         2.9070524293        7.3880394441        9.4769783062
  H         5.1762578920        6.6031017750       32.1071667377
  H         6.8320871606        6.5721062875       32.7654016923
  H         6.2959391961        5.3148058322       31.5241251217
  H        -9.9301063646        9.2324819313       27.1991480829
  H       -10.9575009194        9.8820604881       25.8364414885
  H        -9.9816379615       10.8868024196       26.8162551588
  C        -3.9115617141       14.9569731993       38.6498134449
  N        -3.6329129746       16.3027692202       38.7555958291
  O        -2.9022550553       18.1227233429       37.5531155759
  S        -4.4650408231       13.9095606170       39.9006736762
  C        -3.6448940380       17.0733667476       40.0037303264
  H        -3.7062626007       18.1186928495       39.7618202781
  H        -4.5953446189       16.8650428801       40.5672069492
  C        -2.4647013212       16.8109637318       40.8014594473
  H        -1.6073871150       17.2942130735       40.2924356341
  H        -2.6794065951       17.2613779060       41.8156826597
  H        -2.3046505975       15.7755835832       40.7994870636
