352
 i =    61400, time =    61400.000, E =        24.7901992759
  H         9.3330093861        6.0318441152       31.4465884070
  C        10.0955001658        6.6325337262       31.8772491364
  H         9.3985484851        7.3917341225       32.4607585340
  C        10.8321107918        7.3852260298       30.7565212494
  C        10.9654377005        5.8771892869       32.9252880020
  C        11.2653409827        6.4417319633       29.5786352681
  H        10.2827333764        8.2554231880       30.3479302706
  H        11.7236014181        7.7581647711       31.2539790935
  H        10.4542153957        5.5281319541       33.7788555571
  H        11.4105563833        4.9954993579       32.4450676763
  H        11.7705696936        6.4828505707       33.3349791318
  C        10.0989768658        6.0913329344       28.6366410740
  H        11.6012248992        5.4635405515       30.0485752644
  H        12.0492720744        6.7625532937       28.8756364956
  C        10.6624214927        5.9706563747       27.2426428881
  H         9.6684183130        5.1561565060       28.9795880500
  H         9.3142599015        6.8433579549       28.7429539720
  C         9.6363520187        5.2300633078       26.3776368385
  H        11.6487448242        5.3937775938       27.3488684016
  H        10.8648215203        6.9425945556       26.8684809299
  C         8.3291744003        5.9999367315       26.0382087365
  H        10.0938716173        4.8000491700       25.4334726899
  H         9.2752155686        4.3981543935       26.9873122874
  C         7.2398207536        5.1602960150       25.2738540483
  H         7.8472076858        6.3735648350       26.9500256473
  H         8.4733095932        6.9568710740       25.4966488297
  C         6.8996290962        3.8616364449       25.9205682742
  C         7.6962553356        4.3664266856       23.9927915859
  C         5.9669383342        5.9450186465       24.7801621511
  C         7.0877565596        2.7189260486       25.1032579920
  C         6.4920913525        3.4427468742       27.1735204821
  C         7.6144301720        3.0376809982       23.8679719450
  C         8.2117802780        5.0179881866       22.8719186236
  H         5.3705916031        5.2458471702       24.1617432858
  H         6.2278068821        6.7223164955       24.0712614021
  C         4.9831117130        6.3840299619       25.8975642914
  S         6.7851245225        1.2204082797       25.9700101019
  C         6.2985794995        2.1032952215       27.3167632494
  H         6.3173898761        4.2154351965       27.9578128603
  C         7.9863829044        2.3594568753       22.6903247702
  H         8.3263951157        6.0693266949       23.0504186751
  C         8.5388414898        4.4337406015       21.7045883012
  H         5.0290221519        5.7110579208       26.7445427217
  H         5.3248828224        7.3610310054       26.2759951814
  C         3.4789442155        6.6733077972       25.5263688390
  C         5.7612812031        1.4888346716       28.6141003901
  C         8.4846360895        3.0916882957       21.5738069432
  H         7.9401045168        1.2380539399       22.7008131538
  C         8.9059810542        4.8697067748       20.4973978797
  H         3.0836920995        5.8323249595       24.9771913791
  H         3.4905664839        7.5502420994       24.8537007229
  C         2.5522381453        6.9254215107       26.7683159576
  C         5.7956111937        0.1384748639       28.8817836467
  C         5.2225583538        2.3696033883       29.7094276738
  C         8.8893305659        2.4489040554       20.3252189763
  C         9.0563467479        3.8379646817       19.6407311467
  S         9.2253428862        6.3797069469       19.7474807941
  H         1.6581973422        7.5148625606       26.4385300860
  H         2.9612139357        7.4882421429       27.6049077556
  C         1.9916359134        5.5717798345       27.1416624978
  N         6.1178494217       -0.8162760736       27.9594823079
  C         5.3470696011       -0.4275690499       30.1102009509
  C         4.8303221317        1.8397512126       30.9222753367
  H         5.1627911133        3.4672998767       29.5615843559
  C         7.8434227464        1.6709623640       19.5109505330
  C        10.2513590258        1.6428445981       20.3480449804
  C         9.3080427296        4.2311779883       18.2954545046
  C         9.5506545092        5.5816107480       18.2490188418
  H         1.2277614630        5.3143868241       26.3984774739
  H         2.8352028855        4.9061837201       27.1801718988
  C         1.5151002780        5.4678192684       28.5823273591
  S         5.9790060542       -2.3323907253       28.6353933896
  N         5.5256933711       -1.8608951829       30.1123645170
  C         4.9095889056        0.3964679889       31.2099971571
  H         4.6958030955        2.4396674160       31.8250840322
  H         7.7141962021        0.7781973807       20.0704303473
  H         8.4360769451        1.3343050986       18.6913628766
  C         6.4033208526        2.2115380761       19.2698244953
  H        10.5039799371        1.1665818583       19.3710935972
  H        10.1256108190        0.8171077717       21.0642276836
  C        11.3998967458        2.5265166992       20.9352800193
  H         9.4415952747        3.4468394892       17.5588802872
  C         9.9313529718        6.3628396761       17.0156358666
  H         0.8136311279        4.5430521794       28.5488283407
  H         0.8761899197        6.3074954922       28.6154134178
  C         2.5977709880        5.4138590197       29.6502523877
  C         4.7024602698       -0.2414964297       32.4957927354
  H         6.4905998025        3.1627713528       18.6199539817
  H         5.8647167416        2.4565045473       20.1514370005
  C         5.4099597547        1.1889665742       18.5790313384
  H        11.0330779579        2.9155722712       21.9035084631
  H        11.6296377216        3.4410321284       20.3627133499
  C        12.6626951850        1.6840260297       21.0840822332
  C        10.0554728156        7.7253219192       16.8890224633
  C        10.4853868905        5.5933468155       15.8052451877
  H         3.0113134740        4.4285471001       29.7935068200
  H         3.4560758352        6.0453165841       29.3272239614
  C         1.9862370459        5.7726222225       30.9681321858
  H         4.9272956088       -1.3340580629       32.5473243505
  C         4.3527797102        0.1326043451       33.7326852837
  H         5.2609291789        0.2435672728       19.1108853847
  H         5.8955259799        0.9200390211       17.6455921052
  C         4.0115403534        1.7923157906       18.3934740259
  H        12.3220027215        0.7871869886       21.6135424377
  H        12.9056246809        1.4384422549       20.0416148633
  C        13.6014413685        2.5622702456       21.8952864541
  N         9.5986540891        8.5682505546       17.9145652177
  C        10.5167838937        8.3924855367       15.7465065243
  C        10.9754050474        6.2915473282       14.6656135025
  H        10.5693464800        4.5379304113       15.9177636501
  H         1.4028407581        6.7038163087       30.8781705563
  H         1.2274584227        4.9163451425       31.1951117019
  H         2.6882352523        5.8722838267       31.7766794018
  S         4.1129323213        1.7529510737       34.2606583827
  C         4.2814791981       -0.9080804514       34.8129892312
  H         3.7385467225        2.5728073149       19.1192998237
  H         3.9388420139        2.3392253006       17.4594496250
  C         2.9011508018        0.7224641636       18.2568471843
  H        13.0574588269        2.8940596449       22.8073437414
  H        13.9307901892        3.4844195663       21.3808522646
  C        14.8431543881        1.8334095616       22.2263501394
  S         9.7172487466       10.0968302640       17.3629477277
  N        10.2818352256        9.7796075731       15.8836306485
  C        10.7976159458        7.7428043916       14.5270676656
  H        11.3155663827        5.6623659161       13.8504914062
  C         3.8529810751        1.0940438627       35.8568629914
  N         3.9176978853       -0.2916315090       35.9894293080
  O         4.4995986547       -2.1322825952       34.6655365175
  H         1.8836774596        1.0806021525       18.2124336018
  H         2.7762626272        0.2150230728       19.2247579329
  C         3.3015403932       -0.2387816219       17.1587143308
  H        14.7891395679        1.0144159832       22.9782069599
  H        15.2286184176        1.4378573144       21.3303264510
  C        15.8586954700        2.8504141033       22.7470936851
  C        10.9952350678        8.4264526898       13.3353046328
  S         3.4555190097        1.9445674379       37.3626187408
  C         3.8627707388       -0.9594590913       37.2876904014
  H         3.5789552667        0.3186267059       16.2102448075
  H         4.1060326556       -0.9223868014       17.4509041250
  C         2.1725009308       -1.0887264580       16.7500333108
  H        15.3458739497        3.5274315605       23.4311384581
  H        16.2474975994        3.6314307818       22.0704549141
  C        17.0008750358        2.3401169537       23.5601911760
  H        11.1040986262        9.5088815353       13.5210041614
  C        11.5093872909        8.0936214950       12.0969713099
  H         3.0899688572       -0.5570529995       37.9097493960
  H         3.5471021490       -1.9561698652       37.1368641102
  C         5.2028742748       -0.9576786918       38.0554422849
  H         2.4988078066       -1.5960869444       15.7873166419
  H         1.2889034288       -0.4440621011       16.5412734482
  C         1.8082956824       -2.1371495050       17.7998975151
  H        17.2329009293        3.0326422977       24.3399555925
  H        16.7338779693        1.3996059143       24.1125924546
  C        18.3263768692        2.0982885853       22.8059138420
  S        12.1635446377        6.5286208840       11.6001377783
  C        11.6892243713        9.1738900760       11.0460612953
  H         5.9357400780       -0.9386238871       37.3289024103
  H         5.3679662187       -0.1592240224       38.8235289436
  H         5.2582579286       -1.9544988596       38.5880954121
  H         0.8589431637       -1.8772508403       18.2724087104
  H         2.5482380488       -2.0985636314       18.5796453478
  H         1.8396465935       -3.1698803632       17.4268569855
  H        18.3477423462        1.2211219262       22.1150303406
  H        19.1346839009        1.8568622878       23.4638463318
  H        18.5125222343        2.8775842310       22.1262384097
  C        12.5419136360        7.2682940941       10.0605786606
  N        12.3231583590        8.5835551107        9.9759151709
  O        11.3549612774       10.3803675172       11.2249585896
  S        13.1172517172        6.3727843394        8.6532430061
  C        12.6382042381        9.4124613681        8.7754879739
  H        12.8545766188       10.3774655152        9.2978685927
  H        13.5563270027        9.0661114201        8.3199343375
  C        11.4662163395        9.7198623455        7.8868809810
  H        11.2671736819       10.8026596148        7.8523818263
  H        11.7276207858        9.2371420523        6.9221939132
  H        10.5392292178        9.3147079612        8.2745278271
  H        -2.6132787173       12.6215394863       17.8210242905
  C        -2.4567956854       13.6669756167       17.5459286116
  H        -1.4374033759       13.7135666882       17.8286706008
  C        -3.3192322590       14.6085619864       18.3630550612
  C        -2.5926516066       13.8770865971       16.0400213858
  C        -3.6853500889       13.9548255519       19.7717837675
  H        -2.8058813415       15.5333687605       18.6301690978
  H        -4.1008695169       14.9893832750       17.8363232224
  H        -3.5958003154       14.1678404041       15.8084855118
  H        -1.8359211705       14.5313468660       15.7160770172
  H        -2.5623646504       12.8237252205       15.6124905437
  C        -2.3587506754       13.6846729222       20.5190815100
  H        -4.1343819869       13.0206922482       19.5703727417
  H        -4.3652644315       14.6658799593       20.2769270008
  C        -2.6021610229       13.6318327691       22.0803040105
  H        -1.7727806883       12.8262863865       20.2138665927
  H        -1.7351744400       14.5328769830       20.2596260198
  C        -1.3372672019       12.9861089125       22.6543526690
  H        -3.4540184092       13.0295153050       22.2643733348
  H        -2.8249033636       14.6021270898       22.4534683298
  C        -0.0249238922       13.9138392143       22.7387598289
  H        -1.6677201484       12.5849904103       23.5905777251
  H        -1.0613010717       12.1069893946       22.0692032944
  C         1.0520332926       13.1916308543       23.5671784381
  H         0.3127004102       14.1732531572       21.7622291108
  H        -0.1794988437       14.8603340407       23.2384169394
  C         1.4438812876       11.8303802921       22.8772517528
  C         0.6238854298       12.4244175625       24.8016603873
  C         2.2004254617       14.1344360305       23.9205483708
  C         1.1117329138       10.7299536288       23.6603320674
  C         2.0146206293       11.4042609318       21.6846750371
  C         0.5628090186       11.0754062097       24.8798047955
  C         0.1462785914       13.0774049314       25.9357911901
  H         2.5114541460       14.5239647961       22.9543483499
  H         1.9131016345       14.9957068156       24.5247034613
  C         3.3929286017       13.3962004797       24.5426614172
  S         1.4503739741        9.2301098954       22.9265926388
  C         2.0454265585       10.0535365859       21.5585323761
  H         2.3345436076       12.1578848050       20.9885089690
  C         0.1602188543       10.4883887605       26.0538310694
  H         0.3024831616       14.1483083321       25.9596102157
  C        -0.3900094476       12.4890810661       27.0575023513
  H         3.6520188698       12.4472488474       24.0076136896
  H         3.1303281462       13.0734996324       25.5600986882
  C         4.6824911084       14.2418214060       24.7043670774
  C         2.5218264880        9.4975990173       20.2056744239
  C        -0.3447354615       11.1627499021       27.1895213067
  H         0.2160460289        9.4458882814       26.1054471133
  C        -0.7901638269       12.9019100138       28.2963131379
  H         5.4226466345       13.6521282766       25.2707968360
  H         4.4282431027       15.1303879809       25.3439790450
  C         5.4284220814       14.6754595696       23.5112643041
  C         2.3532832461        8.1241278548       19.8127049761
  C         3.1703547651       10.3519902615       19.2050856212
  C        -0.7620200258       10.4237637720       28.3996081377
  C        -0.9906937750       11.7921768624       29.1300017128
  S        -1.1698732231       14.3635781822       29.0285444026
  H         6.3633308450       15.1925613032       23.7067971522
  H         4.7831167167       15.3517863008       23.0262711972
  C         5.5999274160       13.4389428769       22.5536624167
  N         1.7195094769        7.1481419815       20.5982300680
  C         2.6943633922        7.6554542150       18.5666146240
  C         3.5418130524        9.8583995499       17.9832296799
  H         3.3576108029       11.4003959465       19.2945166295
  C         0.4087107341        9.6612840564       28.9533952377
  C        -1.9952378609        9.5600285792       28.1156158705
  C        -1.4952173391       12.1483105453       30.3609684706
  C        -1.5577571974       13.5168008916       30.4658851745
  H         5.7303151933       12.4374790001       23.0719822477
  H         4.6587520431       13.3014944462       22.0934262976
  C         6.6199855989       13.5108201940       21.4583654519
  S         1.7154532413        5.7590958595       19.8163972030
  N         2.3468164833        6.3167446451       18.4195377717
  C         3.2802434679        8.4481508224       17.5538572054
  H         4.0155798475       10.4296570591       17.2740583832
  H         0.6557333487        8.9444939085       28.1648432950
  H         0.0289440182        9.1654044322       29.9014271204
  C         1.6106778621       10.4593194636       29.2222072816
  H        -1.7578786293        8.8689810438       27.3117040680
  H        -2.4193543710        9.0450268362       28.9944109490
  C        -3.2293235454       10.4297980557       27.5665880959
  H        -1.6241068956       11.4592885210       31.1570924257
  C        -1.8581425953       14.2679036908       31.7908595227
  H         7.5031230281       12.8654510738       21.6969448748
  H         7.0655111076       14.4830017425       21.5804366368
  C         6.0619775186       13.1698739061       20.0051259485
  C         3.4964338777        7.8350092590       16.2888043276
  H         2.0025625781       10.8500885784       28.3359697670
  H         1.3195455355       11.2812038305       29.8872607881
  C         2.6245222867        9.6196408890       29.9333373250
  H        -3.1029038163       10.9192202192       26.5858106860
  H        -3.4442103011       11.2228247863       28.2673052105
  C        -4.4613729888        9.6304272720       27.3616374950
  C        -2.1190607266       15.6502250233       32.0010576196
  C        -2.1108383474       13.5042509754       33.0227282686
  H         5.6525463562       12.1490260681       20.0254014987
  H         5.0947117473       13.6621789612       20.0337030190
  C         6.9132061453       13.4234001348       18.7742223180
  H         3.2604430175        6.7821613689       16.2706871324
  C         3.7831330479        8.3958633321       15.0482239032
  H         2.8173864034        8.8041788855       29.2957439435
  H         2.1411996348        9.1998454283       30.8096588440
  C         3.7592350637       10.3574131249       30.4641836177
  H        -4.3821390462        9.0824365201       26.4218326946
  H        -4.6345667799        8.8513020044       28.1262537219
  C        -5.7060190507       10.4887567654       27.2075428278
  N        -1.8345724371       16.5917840659       30.9576847121
  C        -2.3807085238       16.2171875624       33.2163152369
  C        -2.4027714515       14.0604447284       34.2619542491
  H        -2.1164511556       12.3891049871       32.8758740573
  H         7.5096009693       12.6262184292       18.3394114342
  H         6.2729343311       13.7649721256       17.8875535194
  H         7.5977560100       14.2672249805       19.0163730146
  S         4.1935987439       10.1189045612       14.5787670467
  C         3.8210540240        7.5200891124       13.9368856611
  H         3.6921006966       11.3496628287       30.0626446603
  H         3.6791848701       10.5022247275       31.5219651858
  C         5.0775078290        9.6251196037       30.2255314401
  H        -5.3214543462       11.3013063869       26.6758757811
  H        -5.9274918543       10.9031944940       28.2314669681
  C        -6.9247821196        9.7878841680       26.5260221426
  S        -1.9866359349       18.0887689071       31.5145563875
  N        -2.3752409846       17.6857393522       33.0575080200
  C        -2.5268057324       15.5572902662       34.4392764203
  H        -2.6307363513       13.4217194010       35.0013584682
  C         4.5144471463        9.4933941436       12.9659965242
  N         4.2194794234        8.1757136760       12.8118208358
  O         3.6638441434        6.2782130945       14.0173735635
  H         5.8667660402       10.3975474160       30.3584968303
  H         5.1335985650        9.3129126191       29.1966153918
  C         5.3140885959        8.4108134943       31.1645244526
  H        -6.5414376004        9.0074415044       25.8247467728
  H        -7.5544360021        9.3292731414       27.2639186710
  C        -7.5907197583       10.6908156149       25.5498713836
  C        -2.9315373010       16.3451465789       35.5880629060
  S         4.8911667540       10.5411207930       11.6083195253
  C         4.3108949068        7.4939298540       11.5044146172
  H         5.3478354387        8.9327987446       32.1534286569
  H         4.4289789701        7.8134778699       31.1369479445
  C         6.4738384240        7.5141651328       30.9119933559
  H        -6.8291379954       10.8328339499       24.8282002276
  H        -7.6986655647       11.6246052347       26.0987295399
  C        -8.8935899533       10.1852995762       25.0217223113
  H        -2.6628159490       17.4039564279       35.5089852371
  C        -3.3383524198       16.0000161056       36.8346642681
  H         4.6675618375        8.0283160068       10.6756067409
  H         5.0449361876        6.7467304541       11.6418067512
  C         2.9391717481        7.0023562419       11.0563886066
  H         6.7009137069        6.9912488907       31.8220856881
  H         7.2867388826        8.1593088303       30.7253564688
  C         6.3253254373        6.4545168343       29.8283052129
  H        -9.1019601016       10.6009228789       24.0300541983
  H        -8.9255980887        9.1322658290       24.9138254485
  C       -10.0633699428       10.3359582259       26.0480786090
  S        -3.8452438896       14.4209444075       37.4100713870
  C        -3.4695514932       17.0831224853       37.8376217188
  H         2.7495559241        5.9148695396       10.7307259547
  H         2.2143487482        7.2883520714       11.8242973045
  H         2.7397443585        7.6118796690       10.1518414062
  H         5.8925590999        5.5820573794       30.3518932135
  H         7.2883269621        6.0880221591       29.5242937174
  H         5.6176537108        6.8381519985       29.0349224044
  H       -10.9825145074       10.2347176881       25.4654344235
  H       -10.2106095671       11.3369043743       26.5250587827
  H       -10.2509191067        9.5341972736       26.7999695118
  C        -4.3315965675       15.1834085906       38.8976593273
  N        -4.0271407744       16.5001890242       38.9451815279
  O        -3.0185180644       18.2296388467       37.6524919158
  S        -5.1290330007       14.4176561125       40.2722486369
  C        -4.1228972204       17.2317129053       40.2377666288
  H        -4.3315842545       18.2911841030       39.9479972947
  H        -5.0419356423       16.9329906527       40.7998543254
  C        -2.8719433567       17.0197981814       41.0098515016
  H        -2.6266662713       15.9804549716       41.1235951521
  H        -2.0548987013       17.4669433633       40.4696393895
  H        -3.0002383588       17.4930831304       41.9483371630
