352
 i =    23300, time =    23300.000, E =        24.7925439235
  H        11.8651986111        7.0795071911       32.6660387624
  C        11.3154949130        6.1686213358       32.5709647766
  H        12.0988094026        5.4454103374       32.4688376461
  C        10.4936387872        6.2031303784       31.2990389331
  C        10.5917748578        5.8231778890       33.8953045224
  C        10.4356907049        4.8934739155       30.4830271747
  H         9.4759662923        6.3908308515       31.6004863049
  H        10.7606285718        7.1584252785       30.7305770309
  H        10.2405146958        4.7615886771       33.7454328510
  H        11.2716554940        5.9147589456       34.7899185326
  H         9.7570361642        6.4772910582       34.0384103876
  C         9.7143799248        5.0089866033       29.1804825855
  H         9.8632545377        4.2125935975       31.0822011908
  H        11.3995066377        4.4972977360       30.2595005609
  C        10.5841682190        5.2608141299       27.9935007068
  H         9.2353302121        4.0786754383       29.0614284607
  H         9.1084910811        5.9205193147       29.3541911506
  C         9.9629308217        4.9473093634       26.6583958140
  H        11.4460861653        4.7206406987       28.1446274314
  H        11.0158930987        6.2754439725       27.9133104227
  C         8.7751583404        5.7452625867       26.1659292927
  H        10.7176114954        5.1736008463       25.9410466441
  H         9.7674953031        3.8145857374       26.5676593145
  C         7.6883571994        5.0188096590       25.3427744672
  H         8.2984828101        6.2510835205       27.0446567840
  H         9.1585852705        6.4841831189       25.4674626872
  C         7.4287041431        3.6095419107       25.9952685602
  C         8.0633157198        4.3095030684       24.1136657934
  C         6.3177226826        5.7671829884       25.3423869421
  C         7.5222928271        2.5059102451       25.2015035650
  C         6.7756505606        3.2620882410       27.2056044230
  C         8.0234855103        2.9470965068       23.9646659117
  C         8.3438036822        5.0375015569       22.9156503738
  H         6.4025014401        6.7024127656       24.8374734111
  H         6.2226826436        6.1571981893       26.3378051449
  C         5.1135238879        4.9129560201       24.7941098214
  S         7.1094417692        1.0558258817       25.8823508068
  C         6.5110997565        1.9146886059       27.2555972318
  H         6.5057045919        3.9804789660       27.9092425450
  C         8.3718764272        2.3876978856       22.7697282347
  H         8.2537685058        6.1180980888       23.1253455332
  C         8.6452094401        4.4930944327       21.6988780993
  H         5.2214014737        4.5725323668       23.7458495472
  H         4.9520478685        3.9793435370       25.2924898726
  C         3.8011085828        5.6782925839       24.8436737213
  C         5.8156930146        1.3033411404       28.4335527693
  C         8.7438578592        3.1307986942       21.6291769380
  H         8.5495130404        1.3312567689       22.7781144854
  C         9.0330361863        4.8959915217       20.4463167644
  H         3.1282602182        5.1511053949       24.1772518048
  H         3.9297618473        6.5591269583       24.2593199456
  C         3.1497155107        5.9376124276       26.1905686431
  C         5.9028385289       -0.0512064626       28.7647620251
  C         5.2063313909        2.1792113376       29.4858439641
  C         9.1081931388        2.4309584337       20.2806252377
  C         9.2565457891        3.8235576127       19.6068158644
  S         9.3684047448        6.4126207698       19.5984398424
  H         2.5642161544        6.7792348118       26.2577904193
  H         3.8257093725        6.1876171768       26.9922724808
  C         2.2436005281        4.7838700871       26.5828672264
  N         6.3410034662       -1.1164709067       27.9418508406
  C         5.6108656715       -0.5323307348       30.0652153555
  C         4.9226363470        1.7093793791       30.7645599660
  H         5.0180304066        3.2236236758       29.3084494295
  C         7.9775450002        1.5703000103       19.8091451890
  C        10.4489229996        1.6076418242       20.3348210827
  C         9.5747492875        4.1860654472       18.3139302314
  C         9.6897667147        5.5504147324       18.1524203090
  H         1.5410273602        4.4485258353       25.7863102507
  H         2.9093628863        3.8813770260       26.7720026517
  C         1.5068025484        4.9723748307       27.8676576592
  S         6.3186520762       -2.5773787538       28.7224950462
  N         5.8895744717       -1.9542157842       30.1681935020
  C         5.1966775643        0.2890431588       31.0913890557
  H         4.3567473098        2.2739386967       31.4841898150
  H         7.5700441709        0.9431314055       20.6246193591
  H         8.3574071514        0.9803040495       19.0110527337
  C         6.8705806006        2.3778780863       19.0585809118
  H        10.6170361477        1.2012434853       19.3558346316
  H        10.2326668008        0.8390660572       21.0823581139
  C        11.6584313708        2.4656566632       20.7348638109
  H         9.7920574641        3.4077501255       17.6459691535
  C        10.1400591347        6.2632071779       16.8522384219
  H         0.7617375341        4.2434747802       27.9926271058
  H         1.0460981146        5.9965884753       27.7740547436
  C         2.4127559887        4.7866804890       29.0813591471
  C         4.9320760254       -0.3864937205       32.3212880564
  H         7.1710443838        2.6381484856       18.0931779605
  H         6.5746392027        3.2170898751       19.6874986539
  C         5.7041110223        1.4259606187       18.8835454673
  H        11.4609253170        2.9184562898       21.7001706315
  H        11.7934232551        3.2243138169       19.9488120190
  C        12.9346306792        1.6009974985       20.7831463661
  C        10.2590417299        7.6214188894       16.6312753598
  C        10.4525598883        5.3733945797       15.6859156616
  H         2.8139020569        3.7908857054       29.0467783141
  H         3.2803777110        5.4039712497       29.0175567410
  C         1.7788394096        5.2417352916       30.3928560784
  H         5.0069311013       -1.4431903680       32.3274107679
  C         4.6801988714        0.0497645033       33.5886315384
  H         5.3292949364        1.0774091270       19.8273595168
  H         6.0390421478        0.5551606074       18.2623678326
  C         4.5697195065        2.0749191052       18.1092119849
  H        12.7720967100        0.8600037877       21.5259513701
  H        12.9575712198        1.0615793662       19.8505477346
  C        14.2629964416        2.3208228978       20.8920088281
  N        10.0593712392        8.5768572878       17.6622553505
  C        10.5382221808        8.1983773384       15.4350473559
  C        10.6648624736        5.9406373275       14.4277482227
  H        10.3858122163        4.2948275337       15.8289305243
  H         1.2859396312        6.2370257514       30.3636801796
  H         1.0299418935        4.7333825124       30.7865438692
  H         2.5451235173        5.3262843627       31.1368207216
  S         4.4543871435        1.6886326064       34.0428464180
  C         4.4618227016       -0.9462774217       34.6923859970
  H         4.5338166467        3.1659215499       18.3835927137
  H         4.6502257606        1.9965625463       17.0499382451
  C         3.1182506496        1.6345326810       18.4257753169
  H        14.2558766753        3.2289662014       20.2376833676
  H        15.0380003155        1.6699498288       20.5055049285
  C        14.4844863070        2.8240687168       22.3359522045
  S         9.9001367680       10.0283482086       16.9913710947
  N        10.3224582648        9.6050182342       15.4949149847
  C        10.7898146075        7.4197859240       14.2778560817
  H        10.6856889635        5.3309749345       13.5240219400
  C         4.1672267738        0.9999562984       35.6525618119
  N         4.2457608294       -0.3080207423       35.7975832866
  O         4.3941051957       -2.1603066889       34.4652185595
  H         2.4054556693        2.2961063259       17.9820979552
  H         2.9976738501        1.7522103039       19.5534974563
  C         2.9703256662        0.2313400009       17.9655633230
  H        15.1163314244        3.6773601932       22.1447889507
  H        13.4949476306        3.2134784246       22.6735842481
  C        15.0328132869        1.7236125393       23.1876398729
  C        10.9505651876        8.1503267027       13.0725850423
  S         3.7394058413        1.9844400848       36.9823974203
  C         4.0149048271       -1.0388406737       37.0366120921
  H         3.2011914560        0.1567645400       16.9097438351
  H         3.6741371029       -0.3657534996       18.5054312883
  C         1.5954151221       -0.3506987982       18.2464332949
  H        15.2080765734        0.9033223037       22.4699372625
  H        14.4476345881        1.4068673198       23.9843134771
  C        16.3880393590        2.0816196727       23.9150463653
  H        10.5295442195        9.1644070172       13.0919148260
  C        11.4443489293        7.7771900097       11.8626802407
  H         3.4550165838       -0.4375306431       37.7601101353
  H         3.3484359396       -1.8590784157       36.8303385263
  C         5.4069917076       -1.5048036990       37.6559608822
  H         0.8362260727        0.1901753487       17.8017248306
  H         1.3271113045       -0.3531617817       19.3000793343
  C         1.5675266075       -1.7428145638       17.5500413156
  H        16.2951337870        3.0782864939       24.4094696949
  H        16.6677001201        1.4300855905       24.7331623409
  C        17.4061847314        2.3503430182       22.8447940581
  S        12.1772432529        6.3860466614       11.3311934353
  C        11.3386340412        8.8854998201       10.8614167731
  H         6.1165001977       -1.9222612866       36.9287603386
  H         5.8962677645       -0.6229670676       38.1256708175
  H         5.3677856583       -2.2845741512       38.3856435118
  H         1.5520303412       -1.6080809803       16.4819078581
  H         0.7528200596       -2.3779842454       17.8247558495
  H         2.4372098691       -2.3957089632       17.8423384243
  H        18.3156691634        2.6363601339       23.3326333623
  H        17.1690442228        3.1866289916       22.2315358335
  H        17.5718243986        1.4858448108       22.1781781572
  C        12.3420121253        7.1779544262        9.7451464590
  N        11.9131530441        8.4511459292        9.7206926594
  O        10.9144499182       10.0304724597       11.0017907447
  S        13.4008469038        6.6235279803        8.4041487837
  C        12.0116232111        9.2918079480        8.5310382278
  H        12.1094212109       10.3325997165        8.8379915638
  H        12.7724517557        9.0607543418        7.7877471419
  C        10.6884409749        9.0610869496        7.7902298247
  H        10.0201614381        8.3436913119        8.2171232142
  H        10.1574404351       10.0093859549        7.7544512660
  H        10.9308999313        8.9229978622        6.6809567489
  H        -3.8709990054       13.8937382824       15.9824599663
  C        -3.3637861738       13.0043878152       16.0663848828
  H        -4.1615858147       12.3274042643       16.2585560582
  C        -2.3526499273       13.0597256456       17.2842977471
  C        -2.7569849098       12.5742934255       14.7683122366
  C        -2.9278304948       13.1223392587       18.6745005079
  H        -1.8344563887       12.1006215607       17.1535598477
  H        -1.6676994675       13.8050637392       16.9598369773
  H        -1.8716840457       13.1383324434       14.5438178316
  H        -2.4339253497       11.5421539562       14.9116840069
  H        -3.4241912304       12.6415521173       13.8741427045
  C        -1.8308858475       13.1367982658       19.7677476428
  H        -3.5793624120       12.2734450649       18.7547698089
  H        -3.6853244741       13.8738702211       18.8959234476
  C        -2.3541247149       12.8029815552       21.1304672507
  H        -1.0146269841       12.4755584718       19.4879143216
  H        -1.3532730921       14.1299972898       19.6823733355
  C        -1.2399795422       12.1675142453       22.0465308281
  H        -3.1788240615       12.0797811553       20.9908560678
  H        -2.9323987526       13.6281870525       21.4409263493
  C         0.0071262762       13.1052623806       22.3524146698
  H        -1.5768997785       11.8443336505       23.0579940585
  H        -0.9099916451       11.2703535257       21.5050456381
  C         1.1589813598       12.4786932338       23.1311012384
  H         0.4685971872       13.3693960460       21.4538030590
  H        -0.4159115244       13.9638538654       22.9071749550
  C         1.6060194188       11.1489362191       22.5658336612
  C         0.7768788721       11.8095837731       24.3984015040
  C         2.4075888765       13.4084819500       23.0496603467
  C         1.3919862618       10.0386496086       23.4115592984
  C         2.1784625888       10.8141655723       21.2921631428
  C         0.7865862911       10.4424721767       24.5575554615
  C         0.3502228551       12.4779990695       25.5090347127
  H         2.7076223539       13.5542604259       21.9732269495
  H         2.2633856277       14.2939285582       23.6137598605
  C         3.7185999416       12.7552091569       23.6182332574
  S         2.0407788725        8.5357932012       22.6711966862
  C         2.4021620841        9.4486332446       21.2130353880
  H         2.2472026222       11.5502653541       20.5366001258
  C         0.3478071335        9.8655633378       25.6710438195
  H         0.2757098039       13.5913715189       25.4075291021
  C         0.0385168468       11.9325178180       26.7236181853
  H         3.9331088089       11.8175587808       23.1017411698
  H         3.4482155392       12.4599837138       24.6764849663
  C         4.9539543206       13.6782669924       23.7001386205
  C         2.8349210059        8.8000066113       19.9835990949
  C        -0.0162408771       10.5598845139       26.8299054857
  H         0.2169256818        8.7911878811       25.7067297984
  C        -0.4127778326       12.3700081902       28.0048453523
  H         5.7402653949       13.0819223130       24.1871450804
  H         4.7596662026       14.5672484191       24.3385201552
  C         5.6876990908       13.8849886426       22.3524272099
  C         2.7018664245        7.4377848503       19.6197843807
  C         3.2500094946        9.6527121616       18.8467491081
  C        -0.5290805934        9.9389377316       28.0865425677
  C        -0.8427328274       11.3337344009       28.7916229795
  S        -0.7538426511       13.8815675464       28.7693120441
  H         6.5159024865       14.5566453369       22.5192098003
  H         5.0042557939       14.4858338211       21.8408224788
  C         6.1638434581       12.5783833617       21.6865498115
  N         2.1613081319        6.5050989074       20.5349701040
  C         2.8379310019        6.9219215243       18.2969309696
  C         3.5590497502        9.1021037046       17.5206442893
  H         3.3800442276       10.6992140986       18.9249584279
  C         0.5781298572        9.1660512635       28.8328990596
  C        -1.8289873478        9.1805536227       27.9479078057
  C        -1.3074553554       11.7633850286       30.0761735698
  C        -1.3875140494       13.1113787679       30.1957196427
  H         6.4251501110       11.8525738417       22.4709596878
  H         5.3803846690       12.0717270018       21.1225362472
  C         7.4903153125       12.8503025672       20.9720525980
  S         2.0568971171        5.0660272790       19.7262588953
  N         2.4766859502        5.5998568848       18.2148063135
  C         3.2014995295        7.6718361068       17.1765844090
  H         3.9275552329        9.8242065493       16.7578485234
  H         0.7188575274        8.2109814949       28.3265260448
  H         0.2621661833        8.9222675869       29.8549582434
  C         1.9141904973        9.8563557290       29.0363076876
  H        -1.6761410374        8.2154351053       27.4181466901
  H        -2.1211857338        8.9668744927       28.9815062422
  C        -2.8958409599        9.9704742241       27.2415144097
  H        -1.6297930725       11.0329974357       30.8022522192
  C        -1.6292455243       13.8185085792       31.5150925545
  H         7.8462716460       11.8569310716       20.6960461040
  H         8.2039667432       13.2959207373       21.7111600867
  C         7.1587686233       13.7598432489       19.7425740601
  C         3.4801856168        7.0334648818       15.8871277026
  H         2.2255677161       10.4667420611       28.2469795167
  H         1.9771531863       10.5041723833       29.9050729552
  C         3.0014001777        8.8378126224       29.4301309706
  H        -2.5653664473       10.2654915102       26.2170847398
  H        -2.8704539923       10.9091174897       27.6945190841
  C        -4.2583257223        9.2154812642       27.1877096408
  C        -1.6479443366       15.2267389180       31.6502416439
  C        -2.0048203261       13.0466389234       32.7056648692
  H         6.9158305456       14.6839467066       20.2189835856
  H         8.0333047514       13.8051305864       19.0107005455
  C         5.9703439508       13.3358870786       18.8881262545
  H         3.3803297172        5.9586996196       15.9112343615
  C         3.7643907545        7.5499553261       14.6259738487
  H         3.4024763259        8.3843102895       28.5855594975
  H         2.5631721206        8.0898545146       30.0689857782
  C         4.0045782574        9.5864325984       30.2208540770
  H        -4.1224945589        8.3319020653       26.4605021705
  H        -4.4580918903        8.7277877393       28.0990785762
  C        -5.2892827603       10.2485013309       26.7291265944
  N        -1.3228912951       16.1037558271       30.6060535952
  C        -1.9315585341       15.8694217166       32.8603967815
  C        -2.3326112213       13.6820479987       33.9189120533
  H        -2.0636497743       11.9384900672       32.7243614805
  H         5.1219060647       13.8842373060       19.3006795586
  H         6.2013048345       13.7675473540       17.8430172344
  H         5.7684699299       12.2426496401       18.8525675255
  S         4.0879102429        9.2211312863       14.2630345330
  C         4.0123395265        6.6217761837       13.4666908186
  H         4.1572782343       10.5778540506       29.7517663340
  H         3.5613226521        9.7955063229       31.1831993974
  C         5.2987159659        8.8491000836       30.4497605343
  H        -4.7919940932       10.6374349756       25.8845389855
  H        -5.4386885096       11.1299528743       27.3934397456
  C        -6.5725238188        9.6345232291       26.1315444014
  S        -1.3417643685       17.6092737299       31.2153237526
  N        -1.8614656449       17.2468352657       32.6899765518
  C        -2.3189712816       15.2299814462       34.0268216390
  H        -2.6211240945       13.1760619995       34.8114092418
  C         4.2282260044        8.6864229778       12.5308783888
  N         4.2731291970        7.3480107700       12.3727319671
  O         3.9418848016        5.3846668426       13.6041449553
  H         6.1922725890        9.3657223588       30.6774277615
  H         5.5999499986        8.3772995758       29.4598705461
  C         5.1124351861        7.7776095820       31.5326057999
  H        -6.4426532624        9.3833325633       25.0611264125
  H        -6.6350848414        8.6700411148       26.6403685800
  C        -7.8229393241       10.4256969978       26.5447469668
  C        -2.6430227268       15.9538988207       35.2150335571
  S         4.7258754839        9.6822076227       11.2384488000
  C         4.3237444673        6.6284488336       11.0282594998
  H         5.0918946795        8.2903426578       32.5210384213
  H         4.2105814064        7.1471243878       31.4833022883
  C         6.3079173063        6.8021338633       31.4102091751
  H        -7.9117487013       11.3493780032       25.9578119306
  H        -7.7733159052       10.5833997328       27.6095746768
  C        -9.1217231310        9.5617602436       26.2052652559
  H        -2.3663495106       16.9955580221       35.0733630592
  C        -3.1062509175       15.5274577034       36.4586455060
  H         4.9926784961        7.1097401216       10.3034141243
  H         4.8211926626        5.6664892962       11.2194540860
  C         2.9190016971        6.2012647330       10.5304687147
  H         6.6966241435        6.4507074429       32.3828644001
  H         7.1187428966        7.3146446342       30.8294342414
  C         5.9436402824        5.5774588096       30.5459802065
  H        -9.1335092381        8.5910953690       26.7415117977
  H       -10.1123632839       10.0310192180       26.4145105821
  C        -9.1681500308        9.3762802302       24.6769959667
  S        -3.6443011375       13.9240346429       36.9812714965
  C        -3.1746323728       16.6369264102       37.4253720300
  H         2.9800263772        5.8018849565        9.5607994066
  H         2.2789095218        5.5780242715       11.1967648421
  H         2.4581701552        7.1918067867       10.4244456070
  H         6.5318362696        4.6905005980       30.8109509880
  H         6.0589106917        5.7491594101       29.4879422082
  H         4.8917952593        5.3092404213       30.7751753565
  H        -8.4702745218        8.5426473586       24.4739299722
  H        -8.9399584972       10.3380807236       24.1862143500
  H       -10.1310920027        8.9889889079       24.3546724141
  C        -3.9866224915       14.7919253043       38.5325191187
  N        -3.7329030116       16.1291231430       38.4943436282
  O        -2.8814085999       17.8400826401       37.2125811095
  S        -4.7235622350       14.0405068067       40.0077285458
  C        -3.9381666551       17.0063349930       39.6552920276
  H        -3.6984457671       18.0358638370       39.3976372021
  H        -5.0086450879       17.0342877379       39.8488660283
  C        -3.0025242852       16.7108410004       40.8383721801
  H        -2.6106307376       17.6623874021       41.3299995220
  H        -3.7240646096       16.1937971441       41.4837714210
  H        -2.3151667347       15.9294046250       40.6821121095
