352
 i =    20100, time =    20100.000, E =        25.2266678367
  H        12.2443843169        7.0617186323       32.2809087414
  C        11.6506801433        6.1264440920       32.3575862406
  H        12.4113906255        5.2865358498       32.2966052091
  C        10.6677388097        6.0196846642       31.1544038487
  C        10.9589464486        5.9156592625       33.6254828980
  C        11.3929003502        5.8635200168       29.8382280970
  H        10.0280366416        5.1666500751       31.3589927619
  H        10.1209213939        6.9779569122       31.2441918449
  H        10.6268825454        6.9015814739       33.8631120875
  H        10.3719519059        5.0097956603       33.6742777155
  H        11.6144640673        5.8160977126       34.4353310400
  C        10.4379920825        6.3980004604       28.8256614427
  H        11.6044786192        4.8270705942       29.6503188608
  H        12.3455410012        6.3935764041       29.7535808405
  C        10.9029514212        6.1497986463       27.4001680195
  H         9.4447549106        6.0502738831       28.9463049559
  H        10.3182888737        7.5052792167       28.9560577809
  C         9.9226242131        5.5374838151       26.4005631693
  H        11.7550739709        5.5020344114       27.4172302879
  H        11.3371874187        7.0915261259       26.9556126166
  C         8.7404114140        6.3891037112       26.0939236737
  H        10.4110373085        5.3963298549       25.4519660447
  H         9.6675275541        4.5347639493       26.6762973415
  C         7.6725537223        5.6191811591       25.3163913098
  H         8.1641968946        6.6747120441       27.0207407100
  H         9.0842605879        7.2522241034       25.5135358722
  C         7.2221965369        4.2824267379       26.0146182925
  C         8.0315650760        4.8402590009       24.0970346172
  C         6.3804597808        6.4753369327       25.1921660208
  C         7.3225871936        3.1842610973       25.2160279343
  C         6.7615221883        3.9762958981       27.2721132372
  C         7.9213871315        3.4820805164       24.0481624541
  C         8.4053731517        5.4491128268       22.9910456372
  H         6.5919053728        7.4343846003       24.7388929206
  H         6.0655871528        6.8370524485       26.1443962059
  C         5.1303922485        5.7567285272       24.6199208151
  S         6.9013887403        1.6675215188       25.9702364188
  C         6.4877267646        2.6253320180       27.4194616366
  H         6.5780378313        4.7853599119       27.9929152610
  C         8.2664953540        2.7527282013       22.9108450384
  H         8.3818150988        6.5365716999       22.8472516772
  C         8.6847610850        4.7650798913       21.8302885119
  H         5.4142574180        5.5604244510       23.5599695148
  H         4.8620355852        4.7827324471       25.0995904543
  C         3.9462474510        6.6997337497       24.6162632418
  C         5.9836200292        1.8132939160       28.6283005897
  C         8.6453809293        3.4269790955       21.7178586514
  H         8.0926359512        1.6667285429       22.7996984833
  C         9.1164655968        5.1273578892       20.5717818098
  H         3.2003568993        6.3621540979       23.8928164331
  H         4.3251066377        7.7104233993       24.3118866550
  C         3.2478360983        6.8790002456       25.9332884097
  C         5.9890636942        0.3979706306       28.8337048960
  C         5.4101873673        2.6462416249       29.7208620411
  C         8.9049619281        2.6995561294       20.4176661606
  C         9.2127223004        4.0489243103       19.7274584945
  S         9.5084971021        6.5966527792       19.7972442362
  H         2.8557136549        7.8574627879       25.9875183510
  H         3.9358187163        6.9289648792       26.7459895328
  C         2.1281192280        5.8667750815       26.2396276531
  N         6.5002758922       -0.6139330980       27.9598897658
  C         5.6525810363       -0.1865589295       30.0229765047
  C         5.0215166484        2.0048002169       30.8906786339
  H         5.3355942439        3.7419171337       29.6145720906
  C         7.6730406509        1.9752479514       19.8416581128
  C        10.1658912225        1.7752833871       20.4651699710
  C         9.5639961920        4.4936812568       18.3981772732
  C         9.8082019112        5.8136958943       18.3106998841
  H         1.6355867607        5.8609764168       25.3208909904
  H         2.5673614267        4.8908290551       26.1265205663
  C         1.4658121601        5.9691396502       27.5759869895
  S         6.4597466333       -2.0565972481       28.7157181376
  N         5.6704687827       -1.5922805548       30.0669576259
  C         5.1903005919        0.5408571931       31.1625025346
  H         4.5577926369        2.5990890965       31.6889066579
  H         7.2708490189        1.2982160962       20.6246092153
  H         7.9504821399        1.3429159420       18.9550006994
  C         6.5585138291        2.9030129134       19.2555441016
  H        10.4328930092        1.2285405951       19.5896167023
  H         9.9063025578        1.0051555859       21.1452367464
  C        11.4680981117        2.4900733145       20.9985601978
  H         9.6149297815        3.7710918415       17.6046398446
  C        10.1195579116        6.6071314205       17.0795167901
  H         0.7420870793        5.1800390964       27.5892645481
  H         0.9050036280        6.9105140396       27.6292059752
  C         2.4327228887        5.9472180212       28.7231849514
  C         4.9965624382       -0.1429908935       32.4137643859
  H         6.8745000701        3.4247506858       18.3149695714
  H         6.1849844305        3.6662250617       19.9326406366
  C         5.3707424411        2.0350618370       18.6818866485
  H        11.2602423346        2.5772536371       22.0615890344
  H        11.5478292399        3.4823138013       20.5040360276
  C        12.6702070727        1.6964912420       20.6711738761
  C        10.2301720559        8.0013188677       16.9724455934
  C        10.2619625458        5.8255273387       15.7949454831
  H         3.1141579581        5.1070623308       28.5148418306
  H         3.0209039596        6.7905480096       28.6698760147
  C         1.7725769430        5.9316062528       30.1575358268
  H         5.0005134117       -1.2191347018       32.3809020487
  C         4.6973223150        0.3668731161       33.6652380690
  H         4.7087155239        1.7040452025       19.4587692736
  H         5.7927809405        1.1776205304       18.1069795567
  C         4.5013722643        2.8607586209       17.7770594822
  H        12.7247442191        0.7711377945       21.3286221675
  H        12.6012595058        1.2901717524       19.6723602330
  C        13.9174803909        2.4299515851       20.8410413057
  N        10.1070487872        8.9739496553       18.0540510329
  C        10.4423521386        8.6191200707       15.7808138961
  C        10.5435927736        6.4577842929       14.5555347072
  H        10.0306588442        4.7310048898       15.7535623039
  H         1.0506800700        6.7760390777       30.1465283562
  H         1.1197736328        5.0880830791       30.3242704433
  H         2.5204692688        6.0643310155       30.8405105208
  S         4.6241710472        2.0085079426       34.1528014630
  C         4.5386688577       -0.5603390847       34.7561191700
  H         4.5892557500        3.9795568405       18.1080318426
  H         4.9010653562        2.8074025588       16.7731695958
  C         3.0274584028        2.4191476113       17.6814435163
  H        13.9245623390        3.2989419935       20.2407518602
  H        14.7289395924        1.7599244127       20.4894694288
  C        14.1178871843        2.9575683487       22.3177462674
  S        10.1151270074       10.4108307735       17.4145319980
  N        10.4289148858       10.0085260462       15.8955040233
  C        10.5940471324        7.9565678356       14.5609169281
  H        10.5760211520        5.8582673023       13.5789948784
  C         4.2803541937        1.4055402749       35.8161839685
  N         4.2245168380        0.0679868202       35.9015100685
  O         4.6881942913       -1.8229903610       34.6663283511
  H         2.4420415947        3.1953531364       17.1118824484
  H         2.7927599980        2.5224100998       18.7358890150
  C         2.8801704800        0.9638311584       17.2428257150
  H        14.8268840377        3.8138138169       22.3293026506
  H        13.2215053986        3.4639109850       22.7802426709
  C        14.5699859176        1.8896939190       23.3047922328
  C        10.7850453093        8.7442938087       13.3849567238
  S         4.0398495688        2.3399309292       37.2745346321
  C         4.1164872130       -0.6398080601       37.1205222649
  H         2.5467163711        0.9914943068       16.1960235465
  H         3.8811112672        0.4959123409       17.2538605746
  C         1.9476609401        0.1786046543       18.1827656373
  H        14.5949629541        0.9482374334       22.6861488238
  H        13.8199009275        1.6932422514       24.0587970646
  C        15.9372373711        2.1186846868       23.8490625173
  H        10.5605985578        9.7864458595       13.5152107342
  C        11.3613049699        8.4606897848       12.1685126989
  H         3.4762184053       -0.1498178390       37.8703099950
  H         3.6290250245       -1.5713960707       36.9224077640
  C         5.4976069358       -0.9505946263       37.6427217972
  H         1.2242423791        0.8547719714       18.5624975910
  H         2.4168607771       -0.1283687944       19.0760955538
  C         1.2169663854       -0.8879251320       17.5085751819
  H        15.8196977543        3.0363717691       24.3427332316
  H        16.2671587527        1.2862053226       24.4932639551
  C        16.9127620675        2.2759822538       22.6747785177
  S        12.0105503244        6.9137306274       11.6556620462
  C        11.3847591808        9.5611138352       11.1899480382
  H         5.4141251606       -1.6454165964       38.4447342711
  H         6.2143281480       -1.4317543226       36.9162334342
  H         6.0692816276       -0.0632591058       37.9332609708
  H         0.4590615922       -0.4015199039       16.9221547735
  H         0.7055145745       -1.5077675739       18.2731760940
  H         1.8459951141       -1.5770330153       16.9262266110
  H        17.9141989760        2.3550682908       23.0451072805
  H        16.6390571059        3.2442930968       22.2133006164
  H        16.8454535950        1.4467552126       21.9870133251
  C        12.2883100398        7.7732245583       10.1810223034
  N        11.8594546987        9.0501961879       10.0426274624
  O        11.0459046096       10.6975369477       11.4585307720
  S        12.7852244877        6.8883178944        8.7151044332
  C        12.0327763043        9.9283549459        8.9696681067
  H        12.4284364993       10.8948405489        9.3083701527
  H        12.7106204971        9.5425407540        8.2487613548
  C        10.6684553918       10.1879412826        8.2766438390
  H         9.9825608055       10.5283688442        9.0011614458
  H        10.8663100683       10.9171213176        7.4969985605
  H        10.2284733985        9.3119960247        7.8845747313
  H        -3.7862101373       14.1249611300       16.2358123009
  C        -2.9204245779       13.4971548283       16.4032684859
  H        -3.3959605441       12.5724398606       16.7574586654
  C        -1.9657213357       13.8564921376       17.4684834111
  C        -2.3842039547       13.4302272738       15.0422856159
  C        -2.5320854762       13.7267937162       18.9553237342
  H        -1.1465972242       13.1555082448       17.4329953175
  H        -1.5064055139       14.8159512692       17.2216524419
  H        -2.4541758781       12.5391268502       14.4763571096
  H        -2.9080986115       14.1243232021       14.3217222190
  H        -1.3503474268       13.6131301179       15.1833288110
  C        -1.5266588948       13.7901779083       20.0863449490
  H        -2.9955764575       12.7990710276       19.1314605524
  H        -3.3955532707       14.3747951896       19.0968806178
  C        -2.1209459445       13.6298414254       21.4879441065
  H        -0.7682339743       12.9638434593       19.9922356965
  H        -0.9318486832       14.6492806594       19.9430838445
  C        -1.1340722551       13.0578703027       22.5474245222
  H        -3.0677049848       13.0808111971       21.5779197988
  H        -2.4589673643       14.6650490611       21.6065355770
  C         0.1220902121       13.8838176244       22.7619001637
  H        -1.6239187902       12.8727791204       23.5195954917
  H        -0.9019807237       12.0547808525       22.2397393104
  C         1.1730365035       13.2090088893       23.6209541463
  H         0.5107233348       14.1039498401       21.7983251680
  H        -0.0953258145       14.8900693339       23.2127506531
  C         1.4747064551       11.8455196785       23.0075848751
  C         0.7583095806       12.5145502503       24.8904811426
  C         2.4619137985       14.0172190836       23.7653455287
  C         1.3206189948       10.7398494587       23.8741341990
  C         1.9238963010       11.4248458224       21.7718661163
  C         0.8863672543       11.1735601299       25.0827142720
  C         0.2629283394       13.1913991768       25.9904666519
  H         2.6151581322       14.5542637831       22.8750858953
  H         2.3366745853       14.8123271013       24.6153866453
  C         3.7187269401       13.2044650518       24.2560321294
  S         1.8160507734        9.2346751996       23.1713558270
  C         2.1093560201       10.0676441824       21.6870943921
  H         2.0753509377       12.2136374109       21.0480118738
  C         0.4923257472       10.5918389606       26.2691589500
  H         0.0638903683       14.2263943165       25.9578471232
  C        -0.0634335176       12.6018115147       27.1727008974
  H         3.8220119782       12.3166526814       23.5587845406
  H         3.5161381899       12.8211570142       25.2443128312
  C         5.0287995959       14.0230174696       24.4256869398
  C         2.4753047663        9.3889631245       20.4349949671
  C         0.0612499162       11.2838660003       27.3723736320
  H         0.6853841464        9.5317649024       26.2336025369
  C        -0.5404461860       13.0439360027       28.3118933640
  H         5.8317208650       13.4313742387       24.8582945449
  H         4.8691470810       14.7632849781       25.1876723633
  C         5.5505156625       14.4830861233       23.0052150468
  C         2.4335060319        7.9765159642       20.2061607482
  C         2.9534963172       10.2070008173       19.2421059992
  C        -0.4587537986       10.5649288098       28.5870210000
  C        -0.7546558041       11.9740813070       29.1956648657
  S        -0.8834474993       14.5560514639       29.0923843191
  H         6.5471836925       14.8734825800       23.0524164269
  H         4.9022814865       15.1036266841       22.4370724385
  C         5.7873137854       13.2724926990       22.0509893369
  N         2.1807294234        7.0652215929       21.2357616702
  C         2.7938237329        7.3282560206       19.0173553735
  C         3.3992386075        9.5348554821       18.0789201270
  H         3.1171639177       11.2794319677       19.3313326635
  C         0.5979117897        9.7414118964       29.3859431236
  C        -1.7279715577        9.7511639982       28.3084982383
  C        -1.4070663633       12.3505844331       30.4112146018
  C        -1.4826945760       13.7308248927       30.5716346350
  H         6.5941136349       12.6214612862       22.4714005280
  H         4.9731049028       12.6674858166       21.9161521490
  C         6.2228794798       13.7863145499       20.6511159733
  S         2.3191459684        5.5247758450       20.6050299464
  N         2.6695873710        5.8973837980       19.0507088447
  C         3.1905066974        8.0838793176       17.8689030923
  H         3.7069511931       10.2174430178       17.3150980284
  H         1.0067436426        8.8924858812       28.7907204577
  H        -0.0218921432        9.2582698848       30.1761866922
  C         1.7949795035       10.5022402671       30.1296299996
  H        -1.3744286165        8.8475367801       27.8261296321
  H        -2.3265507954        9.6058159669       29.1783688055
  C        -2.8378828624       10.4387958287       27.4374837885
  H        -1.4789444219       11.6411541795       31.1966198849
  C        -1.7544661337       14.3719185156       31.8580352045
  H         6.5203971705       12.8835641223       20.1384923082
  H         6.9266073230       14.6390748989       20.7621393032
  C         5.1356639478       14.3675216019       19.7880061100
  C         3.2130857102        7.4583967451       16.5885036439
  H         2.3621192516       11.0905404703       29.3481033668
  H         1.4239124210       11.2232603474       30.9248460607
  C         2.9334719544        9.5440227311       30.5495000982
  H        -2.6024744158       10.5807948169       26.4648194499
  H        -3.0544621409       11.3454465337       27.9694838654
  C        -4.1382834628        9.6700796997       27.3959588849
  C        -1.7660286270       15.7825675817       32.0880122235
  C        -2.0288105876       13.5097633707       32.9817854244
  H         4.1658742519       14.1673987680       20.1805634699
  H         5.2825413048       15.4611706222       19.5691700579
  C         5.0909406041       13.5840011421       18.4383382311
  H         3.1444741696        6.3838388211       16.7140370770
  C         3.5007952056        7.9217751569       15.3048254320
  H         3.2964369368        9.0282997059       29.6785094675
  H         2.5256417017        8.7357900972       31.1431250730
  C         3.9174251826       10.1237967599       31.5366939815
  H        -4.0970757259        9.1546041637       26.4477383011
  H        -4.2871558756        8.8546377939       28.1831123602
  C        -5.3064319080       10.6115078029       27.4140400979
  N        -1.5024444291       16.7843826095       31.1040544993
  C        -2.1195880728       16.2853576558       33.3043430017
  C        -2.1992484110       14.0371056696       34.2998066974
  H        -2.2421350707       12.4270152638       32.9067553584
  H         6.0213407806       13.6988123208       17.9749341094
  H         4.9074140236       12.5820262539       18.5789050728
  H         4.3019292305       13.9068277853       17.8186607927
  S         3.6845713615        9.4991810124       14.6606871966
  C         3.5870078111        6.8101999246       14.3123044343
  H         3.9139735186       11.2133359646       31.3068600297
  H         3.6550326517        9.8165251712       32.5574570175
  C         5.3385568780        9.6141043944       31.1658966234
  H        -5.0582145045       11.4324593912       26.6738630324
  H        -5.2990466964       11.0894175241       28.3769193796
  C        -6.5820981033        9.8873005996       26.9862143576
  S        -1.4785491660       18.2197370432       31.9288833350
  N        -2.1265178598       17.6892613860       33.2802285065
  C        -2.2479173600       15.5527646978       34.4941681091
  H        -2.4901029820       13.3267684444       35.0499712047
  C         3.9750200590        8.7312402760       13.0942723221
  N         3.9303422695        7.3602332032       13.1115043621
  O         3.4320245339        5.6480449800       14.5351746847
  H         6.0308537226       10.4128149836       31.4020375078
  H         5.3642639811        9.4549865863       30.1548560357
  C         5.6040351396        8.2806396137       31.8701326688
  H        -6.5126575032        9.3467314658       25.9954947979
  H        -6.8817809780        9.1469938009       27.6819151579
  C        -7.7431362327       10.8416665392       26.7009312978
  C        -2.4175913121       16.1914910491       35.7390620410
  S         4.3885279418        9.4939857471       11.5875372236
  C         4.0580271221        6.5164795470       11.9224172959
  H         5.8135233416        8.5836354216       32.9243939428
  H         4.7425069839        7.5786747754       31.9429696106
  C         6.7380080780        7.5612235306       31.2232527004
  H        -7.3982274497       11.6322304979       26.0122836758
  H        -7.9213691175       11.5693804601       27.5149507421
  C        -9.0151149123       10.2144207309       26.3170258555
  H        -2.0632215310       17.2009007719       35.7621553162
  C        -3.0535559606       15.8068783025       36.9252090824
  H         4.6962832289        6.8122056019       11.0530295808
  H         4.6611118886        5.6388113380       12.1789888093
  C         2.6569562588        5.9655133074       11.5215711342
  H         7.5984801800        7.3830074275       31.9218554166
  H         7.2326100735        8.2400292738       30.4297942821
  C         6.3675251099        6.2948377677       30.6105198183
  H        -9.0777957774        9.3163199333       26.9364299551
  H        -9.8778381358       10.8780839521       26.5345934575
  C        -9.0127510746        9.8255476971       24.8485990717
  S        -3.9059251476       14.3113077823       37.1962462980
  C        -3.1626964119       16.7624200488       38.0432701205
  H         2.3110695509        5.1438397086       12.0988936497
  H         1.8980545362        6.7760268154       11.6691520150
  H         2.5532109272        5.6048974635       10.5065274001
  H         7.2480562135        5.7500629443       30.2445254306
  H         5.8628986762        6.5285059396       29.6410267164
  H         5.7601573733        5.6043889571       31.2553494112
  H        -8.8083219674        8.7589789537       24.6555290886
  H        -8.2873439768       10.2834324252       24.2186040394
  H        -9.9574914808        9.9643671093       24.4236388971
  C        -4.3816125845       14.9882539252       38.7425979123
  N        -3.8679883123       16.2073102327       38.9879871644
  O        -2.6937453655       17.8941691418       38.0091449676
  S        -5.2781376572       14.1618528661       40.0735470220
  C        -4.0782951434       16.9502978135       40.2887638271
  H        -4.4793363969       17.9366874029       40.1921883933
  H        -4.7728434457       16.5780437103       40.9642740948
  C        -2.7793346654       16.7898690840       41.1463511265
  H        -2.9935673283       17.1817950401       42.1910781009
  H        -2.5099061820       15.7581825741       41.2908106080
  H        -1.9339954942       17.3400152695       40.7581831520
