352
 i =    75300, time =    75300.000, E =        25.3143873147
  H        11.5927393548        4.6913323911       32.2269260630
  C        10.8674842772        5.4926556416       31.9589476654
  H         9.9889370982        5.0700919104       31.6109735056
  C        11.5685461089        6.3373644639       30.8510028850
  C        10.6294931867        6.1921079422       33.3328457645
  C        11.8923277422        5.6201825101       29.5383946349
  H        10.9060648385        7.2033174921       30.7977171687
  H        12.4785475361        6.6634499934       31.4378612933
  H        10.3961661625        5.5341414634       34.1397214006
  H        11.5661141946        6.6490537408       33.7468891184
  H         9.9633756775        7.0682724651       33.1427730193
  C        10.7351289648        5.0759344987       28.7056187964
  H        12.5698180694        4.8237213010       29.8710711002
  H        12.5149180300        6.3517717119       28.9776447506
  C        10.8429654486        5.6520264091       27.2643615813
  H        10.8799242007        3.9667298664       28.6964988885
  H         9.7896447403        5.3338787991       29.0836413731
  C        10.0139086367        4.9617250944       26.2521426776
  H        11.8839293922        5.5426795527       26.8714459705
  H        10.5355236649        6.6946575069       27.3163277425
  C         8.6692035215        5.7044608103       26.0847872545
  H        10.5879810761        4.8468148874       25.3737808869
  H         9.7704357142        4.0302289158       26.6346410096
  C         7.5294368564        4.8027616047       25.4232719562
  H         8.1914604330        5.9499161165       27.0197349047
  H         8.7235832780        6.5612525564       25.4753590306
  C         7.1654062860        3.4976208116       26.0842525792
  C         7.9885489608        4.0982550472       24.2323988950
  C         6.2077665586        5.6727211913       25.3182558303
  C         7.3265928296        2.3824081649       25.2390201863
  C         6.7270560592        3.1779076966       27.3479946055
  C         7.8536893721        2.7882087311       24.0619111750
  C         8.4637815974        4.8789669203       23.1908658888
  H         5.4631495866        5.0509175103       24.7772670024
  H         6.3855226098        6.5969398840       24.7309012355
  C         5.4540081806        6.0159324406       26.6164374599
  S         6.9101309389        0.9050147259       25.9795393785
  C         6.4855857777        1.8300218517       27.4512447904
  H         6.5603802548        3.9262050209       28.0606875762
  C         8.1546511936        2.3187592732       22.7859153039
  H         8.4367501186        5.9628545079       23.3353647678
  C         8.7021482813        4.4058187650       21.9293064906
  H         6.1109386360        5.8899415497       27.4925414166
  H         5.2728749213        7.0885003280       26.5745733556
  C         4.0973034180        5.2684843370       26.6987071851
  C         5.8177429082        1.2166940137       28.6566130768
  C         8.5582767876        3.1099146009       21.7274994116
  H         7.9108727422        1.2768059266       22.6180447374
  C         9.0673946249        4.8665202617       20.7276271156
  H         4.3492199730        4.2029793386       26.8567577272
  H         3.4248729760        5.2714127388       25.8217168138
  C         3.2438947478        5.8752092869       27.7965261981
  C         5.7717723876       -0.1564330800       28.9522511928
  C         5.3507294472        2.1173940017       29.7143463663
  C         8.8562375333        2.4423735350       20.4266012087
  C         9.1266460113        3.8638507480       19.7909094799
  S         9.3251249325        6.4347880290       20.1342663970
  H         2.8503168712        6.7966480989       27.4689120740
  H         4.0361120486        6.2479691345       28.4604683772
  C         2.1719852582        4.9507417146       28.3794977277
  N         6.2945232705       -1.1710308261       28.1489007247
  C         5.4014186231       -0.6088338931       30.1739264877
  C         4.9663488141        1.7011317874       30.9495623212
  H         5.3296348581        3.1930011132       29.4429281756
  C         7.6492802648        1.7742391269       19.7398461518
  C        10.1231582779        1.5509313488       20.4219523775
  C         9.4842180851        4.3559446980       18.5482660509
  C         9.6846038588        5.7449388082       18.5386852618
  H         1.4751092211        4.5585745084       27.6026461899
  H         2.5577248011        4.0525292643       28.7949595041
  C         1.3132519395        5.6335684534       29.4568797301
  S         6.1397323722       -2.5831534067       28.8741659056
  N         5.4213059620       -2.0244949483       30.2050473074
  C         4.9550843299        0.2436966342       31.2437623208
  H         4.7112073994        2.4148097153       31.7087069026
  H         7.2624964728        0.9123378068       20.3531221257
  H         7.9343149728        1.2745671162       18.8602593565
  C         6.5154510907        2.7714294264       19.5746425240
  H        10.3591281464        1.1454778911       19.4125828884
  H         9.8782508856        0.6363619148       21.0536229618
  C        11.2951819634        2.3429515996       20.9844961580
  H         9.4796812059        3.7700373829       17.6492030543
  C        10.1114827572        6.5255048018       17.2616522405
  H         0.5069193163        6.1788984286       28.9176982143
  H         1.8918832439        6.4630819394       29.8802327109
  C         0.8733264461        4.7631460250       30.6590611435
  C         4.7066162256       -0.3390967612       32.5285054719
  H         6.6240708562        3.4884719375       18.7359218237
  H         6.5844965125        3.3336116427       20.4542587829
  C         5.2574335660        1.9434472465       19.3500121771
  H        11.0079743560        2.8308088403       21.8908288082
  H        11.5826597587        3.0987216713       20.2734282165
  C        12.4765392413        1.5004941835       21.2859192271
  C        10.0802825650        7.8683446797       17.1977501408
  C        10.5816684981        5.7916097454       15.9998090325
  H         0.1296313041        5.3730200835       31.1050582203
  H         0.3957901092        3.8781519816       30.3058361497
  C         2.0910690742        4.4263385133       31.5375204240
  H         4.8546892335       -1.3819291403       32.5975252371
  C         4.3910806898        0.2171491621       33.7545700529
  H         4.3988750519        2.6148250628       19.5130517945
  H         5.1343905991        1.1236385109       20.0610339102
  C         5.1061004426        1.3900554719       17.9922853656
  H        12.1232119376        1.0993266048       22.2561775574
  H        12.5538058077        0.5947073037       20.5698053155
  C        13.6682953884        2.3352008000       21.4923775644
  N         9.8001438005        8.7225566995       18.2344645314
  C        10.3292401253        8.5213026650       15.9847784728
  C        10.7547634718        6.4642348907       14.8536701249
  H        10.6666173013        4.6824550342       15.9653407767
  H         2.7024638329        5.2615302288       31.9025955089
  H         1.7626096438        4.0914013376       32.5246220601
  H         2.7475771388        3.6044138198       31.2003414335
  S         4.1090878508        1.8894503019       34.1208843636
  C         4.3130464796       -0.6988658065       34.9219301546
  H         5.3516245843        2.1609371047       17.2566075385
  H         5.8916814548        0.6301136902       17.8517046649
  C         3.8231684115        0.7112409752       17.5907395725
  H        13.4681657296        3.1453465629       22.1693934197
  H        13.9587681957        2.8921931970       20.5694747892
  C        14.8779380986        1.6980430557       22.0615641853
  S        10.0634078525       10.2176383454       17.7538292893
  N        10.3739367270        9.8964171605       16.2371606674
  C        10.6999736417        7.9370382507       14.7598607075
  H        11.0348998087        5.9661265669       13.9440387298
  C         3.9388637631        1.3361661928       35.8496559685
  N         3.9828754359        0.0074086799       36.0623201274
  O         4.5058752097       -1.8699886908       34.8320848571
  H         3.9460148317        0.1568713425       16.7003152623
  H         3.0919021893        1.4569748913       17.3554213484
  C         3.3159268888       -0.2449589099       18.6560687660
  H        14.6286770509        0.9415335335       22.8179521893
  H        15.4548219490        1.0233513578       21.3866759190
  C        15.8563013249        2.7131714985       22.6115229880
  C        11.0050955611        8.7233661467       13.5577523842
  S         3.3283866082        2.3908055880       37.1988162649
  C         3.8384156218       -0.6912075040       37.3425799660
  H         4.0541891389       -1.0585026792       18.8429310293
  H         3.1445962681        0.3689677762       19.5788603959
  C         1.9306454863       -0.8593290871       18.2901354755
  H        15.3059078872        3.4803839246       23.2245630718
  H        16.3745021573        3.2632646289       21.8708605149
  C        16.8520301650        2.0716070939       23.4941481475
  H        10.7455116788        9.6705148245       13.7167444040
  C        11.4665424511        8.5102333579       12.2618674433
  H         3.0716082096       -0.3001292386       38.0027505200
  H         3.5296264267       -1.6867104675       37.0352301191
  C         5.2819530166       -0.7683348641       37.8501101528
  H         1.1864063415       -0.0223012098       18.1221450960
  H         1.5187128304       -1.4193025899       19.1110968150
  C         1.9884327883       -1.7993633222       17.1087489291
  H        17.0056911619        2.5756387258       24.4717656193
  H        16.4506684728        1.1400374814       23.8198007630
  C        18.0203537484        1.7419063248       22.5681733527
  S        11.7491228572        6.9207820479       11.5716297851
  C        11.6079281501        9.6280623382       11.3544156404
  H         5.2702458480       -0.6950015737       38.9418097007
  H         5.6847913074       -1.7791040712       37.6333852692
  H         5.9552451982        0.0571405677       37.5379635022
  H         3.0215572424       -1.8156213777       16.6857584712
  H         1.2748072060       -1.5732646384       16.3144058669
  H         1.6914020804       -2.8257519175       17.3663943752
  H        18.7263818441        1.0907125498       23.1701017601
  H        18.4969470111        2.6069461150       22.0841299629
  H        17.6569486286        1.1271223793       21.7676884994
  C        12.2165504241        7.7792761243       10.0671040854
  N        12.1705320743        9.1211805500       10.2126086531
  O        11.2932798737       10.7734937142       11.5771913423
  S        12.8321941371        7.0762800101        8.5649998638
  C        12.2771664633       10.0205082091        9.0661116177
  H        12.8778672584       10.9237681805        9.3139701665
  H        12.7379538429        9.6146805209        8.2587230169
  C        10.9565272883       10.4787806377        8.5662249255
  H        10.6577141659       11.4407187720        9.0529982653
  H        11.0220283794       10.5186249289        7.4359923874
  H        10.2091097966        9.6525490433        8.7767029585
  H        -2.1057636633       15.3866901350       15.7252124576
  C        -2.6123633305       14.5192530501       16.1167891956
  H        -3.4862112619       14.9926160171       16.5924813846
  C        -1.6599038255       14.0087288659       17.1744852720
  C        -3.1579314042       13.5735643164       15.0634260581
  C        -2.4652212244       13.4429989745       18.3075909769
  H        -0.9062268531       13.2776257474       16.7821342203
  H        -1.1128043188       14.8485206396       17.5709167888
  H        -3.8075574393       12.8440021684       15.3580433937
  H        -3.5524201522       14.2016390129       14.2864928846
  H        -2.2584549899       13.0862320984       14.6542969889
  C        -1.6081504083       13.1508661660       19.5389492528
  H        -2.8492161363       12.4956220616       17.9127248998
  H        -3.3414407652       14.0006612308       18.4975657183
  C        -2.2460178904       13.2831648272       20.8973740932
  H        -0.9460551260       12.3169511623       19.3958887789
  H        -0.9090191156       13.9605585375       19.4922201061
  C        -1.4897921738       12.6866746979       22.0900481797
  H        -3.2632764873       12.8775407470       20.9082750420
  H        -2.5423266514       14.3531874875       21.0118955690
  C        -0.2038181607       13.4669036341       22.4127892397
  H        -2.1309156675       12.7933470936       22.9530717097
  H        -1.2865854393       11.6115961141       22.0107332494
  C         0.8199286392       12.6327978994       23.2116043869
  H         0.2962169851       13.8816477868       21.4625843086
  H        -0.5189656768       14.3757178596       22.9598262430
  C         1.1987796549       11.2576748363       22.5234798373
  C         0.2838936457       11.8703775801       24.3830073488
  C         2.0436851853       13.5326951608       23.4769454474
  C         1.0333772186       10.1612875054       23.3081005276
  C         1.8382020194       10.9961927777       21.3526813549
  C         0.4391083144       10.5279972061       24.5254669355
  C        -0.1970067049       12.5612893125       25.5013582216
  H         2.1887511246       14.1097482475       22.5172988604
  H         1.8229800170       14.3008844305       24.1624975783
  C         3.3186879175       12.7728260125       23.9623025172
  S         1.5795535306        8.7444261607       22.4737884199
  C         2.0267443261        9.7158017417       21.1104746632
  H         2.0107427781       11.8340872895       20.7111370082
  C        -0.0322284449        9.9209915359       25.6630892527
  H        -0.1081548301       13.6401307173       25.4842065240
  C        -0.5254841968       11.9422004421       26.6915209438
  H         3.7027670966       12.1786329782       23.1339938569
  H         3.0480459281       12.2186887650       24.8516330697
  C         4.5790634853       13.6165955133       24.2738789389
  C         2.5315113200        9.1694432533       19.8290199173
  C        -0.4800183490       10.6027741935       26.8332318188
  H        -0.0924860290        8.8354545620       25.6735429098
  C        -0.8410906973       12.3457635927       27.9759807414
  H         5.2742573540       13.0398664281       24.8053868683
  H         4.1904665614       14.4463516443       24.9136499266
  C         5.2947732268       14.0513731111       23.0078828445
  C         2.5974982082        7.7747704641       19.5417063241
  C         3.0141232264       10.0807280900       18.7549404975
  C        -0.7402772837        9.8876912518       28.1284843836
  C        -1.0166221148       11.2544285919       28.8000387893
  S        -1.1662023899       13.8513516015       28.7260725663
  H         5.7541932510       14.9940910388       23.1558436008
  H         4.5681156595       14.2656902942       22.2187249978
  C         6.2756655172       12.9824509844       22.6013368439
  N         2.3813663366        6.7026843880       20.4656834854
  C         2.8738933223        7.3096195742       18.2786937945
  C         3.3722848562        9.5911023209       17.5534001613
  H         3.2441930715       11.0998850831       19.0858622412
  C         0.4520909826        9.0848433553       28.6756424435
  C        -2.1167987893        9.1214576061       27.8495416091
  C        -1.5080021352       11.6186396658       30.0138119870
  C        -1.5868272186       13.0101971557       30.1736501521
  H         6.9036992487       12.8455673914       23.4348112642
  H         5.8336765619       12.0401161434       22.4548336382
  C         7.2917622589       13.4701996704       21.5894376417
  S         2.2973511047        5.3307712811       19.6154340681
  N         2.6610565193        5.8924238803       18.1455234121
  C         3.2221519672        8.1670524178       17.2170595806
  H         3.8129883997       10.1616764788       16.7409888702
  H         0.6647347576        8.3424206919       27.9227117475
  H         0.1750349655        8.4904044252       29.5357881983
  C         1.6785072467        9.9409743214       29.0524974388
  H        -1.9558350929        8.2667258935       27.1843567938
  H        -2.3246007088        8.5778695802       28.7697627330
  C        -3.2853075310        9.9475248873       27.3499757031
  H        -1.6723205275       10.8352306624       30.7858726000
  C        -1.9089104204       13.7466487543       31.4522101403
  H         8.1038925619       12.6438503281       21.7268035036
  H         7.7236384115       14.4555710940       21.8980157015
  C         6.8057594195       13.5478915485       20.1456765784
  C         3.4468908745        7.6277436401       15.9335772390
  H         2.1005761368       10.3304896990       28.1327686551
  H         1.3789743978       10.7818933979       29.6766830365
  C         2.8140980550        9.2108714941       29.7572911407
  H        -3.0588027244       10.4244455529       26.4533419558
  H        -3.6689579166       10.6295369790       28.0806288945
  C        -4.4225029774        9.0258016941       26.9259744266
  C        -1.9599366903       15.1541392851       31.6435980550
  C        -1.9276794284       12.8944999327       32.6820809718
  H         5.9417520493       12.8944864353       20.0416621031
  H         6.2974819746       14.4920106219       20.0207594083
  C         8.0092750668       13.2864002231       19.1479725275
  H         3.5261540872        6.5890511762       15.9470264914
  C         3.6474467310        8.1630725014       14.6893864447
  H         3.0562303394        8.3036247608       29.1754156251
  H         2.3419474379        8.8295771299       30.6822776214
  C         4.0443738674       10.1712860279       29.8458562052
  H        -3.9851118482        8.3689498241       26.1534337014
  H        -4.8537946500        8.3326397915       27.6588536470
  C        -5.3955237318        9.8272448869       26.1588387148
  N        -1.6136249831       16.1181912093       30.6640434343
  C        -2.1683941161       15.7098326829       32.8570834632
  C        -2.2232711724       13.4589026971       33.9244311792
  H        -1.7500756037       11.8654620199       32.5063645688
  H         8.6220867605       12.3661401782       19.3586844733
  H         7.5510150473       13.2198423984       18.1748573118
  H         8.6726399262       14.1274914651       19.1092361840
  S         3.9813837540        9.7561921276       14.2113602172
  C         3.7949573329        7.1639688987       13.5479478769
  H         4.5296794210       10.4413433896       28.8660754655
  H         3.7579396067       11.0764687842       30.2390436411
  C         5.1941879324        9.6501826541       30.7451761421
  H        -5.1766566591        9.6561371433       25.1077796563
  H        -5.1532495544       10.8426025566       26.3810885936
  C        -6.7402458364        9.4514731409       26.4680664662
  S        -1.8420788052       17.6061450422       31.3032041839
  N        -2.1948529398       17.1028609248       32.8325231004
  C        -2.3604518084       14.9793903228       34.0608490117
  H        -2.2620328410       12.8354148956       34.8015820597
  C         4.0956701601        9.2341292402       12.5172686288
  N         4.1151744062        7.8596037211       12.4031144478
  O         3.8103910118        5.9370548713       13.6360882943
  H         4.7697292326        9.6036290006       31.7896573132
  H         6.0463668397       10.2742020626       30.7632689132
  C         5.6471160910        8.2999977556       30.2526308638
  H        -6.8372278761        8.3616471886       26.2297447586
  H        -6.9417234677        9.6649025910       27.5247424411
  C        -7.6878064649       10.2157751755       25.5999055254
  C        -2.5996171994       15.7041986555       35.2396327306
  S         4.5209018745       10.1223441670       11.1424552900
  C         4.2236475132        7.2696769132       11.0534574915
  H         5.0477190912        7.7918637497       29.4779038556
  H         6.5873348119        8.4135068244       29.6940015646
  C         5.9109176713        7.1867328619       31.2172555857
  H        -7.2539660581       10.4847586152       24.6268438453
  H        -7.8591733072       11.1978170615       26.0772629756
  C        -9.0300325186        9.5079544733       25.3459695143
  H        -2.5111788240       16.7507092732       35.0862016817
  C        -3.1689044313       15.3320272532       36.3879396375
  H         4.6701878021        7.7743451388       10.2529060017
  H         4.7902399201        6.4294982610       11.1885498394
  C         2.8129774731        6.7791393058       10.6299213773
  H         5.4319805167        7.4432851047       32.1604429488
  H         6.9516274426        7.3250567479       31.3974780236
  C         5.5377696938        5.7517378373       30.7429121296
  H        -9.4233559406        9.5958408199       24.3200392043
  H        -8.9183885309        8.4283271291       25.5830117436
  C       -10.0622923931       10.2001399570       26.2633502616
  S        -3.6666876360       13.7727838906       36.8336697055
  C        -3.3162787838       16.3758421597       37.3803222737
  H         1.9513807542        7.0229945797       11.3532933063
  H         2.5657061043        7.1695978540        9.5982741951
  H         2.9744998051        5.7088268766       10.6321766731
  H         6.4261137973        5.3425679286       30.1536087180
  H         4.6512150760        5.6389450683       30.1801033320
  H         5.4844060199        5.0531055960       31.5444884161
  H       -11.0559690349        9.8676298864       26.0645413380
  H       -10.0335254343       11.2541947058       26.2728879472
  H        -9.7905100081        9.7373769301       27.2088094447
  C        -4.1808132351       14.4370673775       38.3563581654
  N        -4.0925342216       15.8198501271       38.3467626742
  O        -2.8742645604       17.5389521374       37.3497999910
  S        -4.8230788185       13.6830387464       39.8294517334
  C        -4.4719075180       16.6160003823       39.4826089283
  H        -4.6204213443       17.6353524634       39.2789915426
  H        -5.4734865029       16.2482192182       39.8604385052
  C        -3.3052252402       16.5423478947       40.4809647664
  H        -3.3146885821       17.4931595203       41.0529348010
  H        -3.3865347235       15.7058758619       41.2222670183
  H        -2.3077639861       16.4998279562       40.0247461860
