352
 i =    59200, time =    59200.000, E =        24.6287777731
  H        10.2690669365        4.1373506979       31.1000200422
  C        10.6714650144        5.0294466013       31.4736106201
  H         9.7888744739        5.6617644091       31.5153763661
  C        11.8137887460        5.5366579736       30.6289715997
  C        11.0947608956        4.8240358347       32.9181792651
  C        11.7657952979        5.0587270667       29.1400270974
  H        11.7335870442        6.6243165728       30.7462933679
  H        12.7775734540        5.1956169078       31.0585473333
  H        10.6299946131        3.9438958270       33.3280021925
  H        12.1658223031        4.5725387744       32.9483869063
  H        10.6857731645        5.6189964971       33.6079739751
  C        10.4511447528        5.4636740715       28.4385880153
  H        11.9043637014        3.9783479101       29.0416923959
  H        12.6948971797        5.5029915092       28.6844054054
  C        10.6437563566        5.5428849252       26.9155882799
  H         9.5844645578        4.8225944307       28.7470788686
  H        10.2579843617        6.4844878287       28.8941958025
  C         9.5861733169        4.6627670466       26.1486136795
  H        11.6080864146        5.0788243415       26.7051905472
  H        10.6762184533        6.5721992991       26.6284243272
  C         8.2272130384        5.4426859957       25.9782400493
  H         9.9803835857        4.3629392715       25.1995502391
  H         9.4561698262        3.6387198006       26.6537375421
  C         7.2442639197        4.5883225126       25.1815847759
  H         7.8824209004        5.6443454514       26.9691947941
  H         8.2300755050        6.4406943116       25.5851690145
  C         6.8319262385        3.2363602785       25.8607681098
  C         7.7797146048        3.8437135837       23.9411990629
  C         5.9752990147        5.3989756409       24.7599598348
  C         7.1459268365        2.1569084686       25.0903346835
  C         6.3753396228        2.9452774368       27.1296093404
  C         7.7172315086        2.4665032697       23.8590097136
  C         8.2199107889        4.5187271042       22.7998977441
  H         5.5288447515        4.9153771970       23.8920381860
  H         6.2342034853        6.3333812428       24.3104091071
  C         4.7683460913        5.6515881851       25.7245848818
  S         6.7350208314        0.7313336815       25.8711995926
  C         6.3079482753        1.6002120869       27.2996225173
  H         6.2466748093        3.7794559017       27.8571964773
  C         8.2689373488        1.8545460831       22.7710341802
  H         8.3254833302        5.6194342153       22.8678651541
  C         8.6585231370        3.9153484824       21.7068131228
  H         4.7989595445        4.9057446335       26.4849456163
  H         5.0153864154        6.5938056268       26.1350318399
  C         3.3718272158        5.9894203579       25.0586408373
  C         5.9336534122        0.9099552701       28.5759329011
  C         8.6883536800        2.5945588723       21.6191908453
  H         8.2917448141        0.7973051390       22.5856103318
  C         9.0617014481        4.3568985266       20.4653087913
  H         2.9344123525        5.1386859725       24.5423511560
  H         3.5544386944        6.7989811956       24.3764860556
  C         2.3332995927        6.4110316335       26.1633109448
  C         6.0671996733       -0.4869075123       28.8982147935
  C         5.3764394442        1.7287359413       29.7079513016
  C         9.1070328510        1.9086213863       20.3184557505
  C         9.3094267687        3.3127585050       19.6242508527
  S         9.3263769898        5.8877235525       19.7189377281
  H         1.5385153175        6.9661873120       25.6237168763
  H         2.9250534555        7.1035506843       26.8002730008
  C         1.6964579646        5.2797650051       26.8720177981
  N         6.3506890343       -1.5105641984       27.9883481328
  C         5.7649725935       -0.9458939989       30.1382367996
  C         5.1336063598        1.2243534755       30.9729269383
  H         5.3153608535        2.8060664757       29.5584759405
  C         7.9003083319        1.1922901125       19.6892261295
  C        10.4082701782        1.0013900222       20.4496952636
  C         9.6259906218        3.7304796490       18.2687958884
  C         9.6531907574        5.0544274819       18.2133037620
  H         0.6537438254        5.2363079303       26.4200922024
  H         2.2816600762        4.3264778734       26.5759811396
  C         1.6408629399        5.3968073765       28.4069146274
  S         6.3360534658       -2.9143596725       28.7306242435
  N         6.0075996264       -2.3864354456       30.1795834276
  C         5.3545228707       -0.1832951186       31.2760743271
  H         4.7927249902        1.8271173041       31.6902371785
  H         7.5495386864        0.4645337721       20.3916306954
  H         8.2408018786        0.6274715993       18.8635836544
  C         6.7196199733        2.0932714885       19.2951743121
  H        10.6807043705        0.5756286616       19.4309039888
  H        10.0768881124        0.0765968286       21.0355011874
  C        11.5565507205        1.7158238588       21.1643165658
  H         9.7457452911        3.0509396321       17.4562278765
  C         9.9899520192        5.9118487663       17.0258196850
  H         0.8559195254        4.7075097349       28.7726660393
  H         1.3499599937        6.3736518358       28.6803330440
  C         2.8574503550        4.9642966094       29.1889531455
  C         5.0718127894       -0.8596222671       32.5452015601
  H         6.9195599101        2.6826011025       18.4026204825
  H         6.5332757791        2.8171078842       20.0192363999
  C         5.5164919250        1.1732136635       18.7793023051
  H        11.3226589544        1.9201706833       22.1600998640
  H        11.7892059981        2.6750473092       20.6203900023
  C        12.8194306596        0.8483672164       21.1932635227
  C         9.9403882460        7.3188960000       16.9233336374
  C        10.2723984255        5.2451031479       15.7123891636
  H         3.2231352971        4.0746454936       28.7135682100
  H         3.6897092765        5.6432823391       29.0544522096
  C         2.5382404574        4.7213867792       30.6759025811
  H         5.4074662245       -1.8518048586       32.5461629709
  C         4.7194098254       -0.3258715109       33.7850561177
  H         5.2006480509        0.5570681074       19.6136495329
  H         5.9600309768        0.5949439036       18.0066193356
  C         4.2527961540        1.9231581423       18.3227053594
  H        12.5411588545        0.1596484694       21.9921195290
  H        13.1243128102        0.3193035721       20.2542906171
  C        13.9651360413        1.7808343394       21.7045819258
  N         9.6668230067        8.2301316984       17.9583990216
  C        10.2645998591        8.0428855803       15.7446756619
  C        10.5522791641        5.9611834918       14.5440473656
  H        10.4278623054        4.2370533088       15.7388470852
  H         1.6870848190        4.1086925795       30.8938001999
  H         3.3113909023        4.2939140773       31.3561545855
  H         2.3466234129        5.7540429162       31.0754222503
  S         4.4067397489        1.2821562466       34.2088728026
  C         4.6819170145       -1.3184395869       34.8658541079
  H         4.1925183359        2.8329398568       18.9728366320
  H         4.3921876444        2.3713467985       17.3470327757
  C         2.9251444141        1.1275166860       18.2095812043
  H        13.5711522719        2.8144992560       21.6136688750
  H        14.7365365588        1.7614793102       20.9832330324
  C        14.3153199190        1.7017375568       23.1967322809
  S         9.6384316044        9.7896492704       17.3686907051
  N        10.0538439131        9.4250699327       15.8672690620
  C        10.4864293905        7.4164710596       14.4789488969
  H        10.7298987059        5.3584223856       13.6515224955
  C         4.3821164578        0.6671406997       35.8445138819
  N         4.3815586823       -0.6836108855       36.0166981038
  O         5.0106716725       -2.5080557562       34.7540107280
  H         2.0649549892        1.7624177490       18.0158845652
  H         2.6919192455        0.7327747428       19.2626540865
  C         3.0002115869        0.0167686112       17.1682224523
  H        13.3721107293        1.9305680297       23.7763635725
  H        14.5845948006        0.7345571192       23.5864667332
  C        15.2196614208        2.8095912326       23.6340537335
  C        10.7189449070        8.1920699914       13.2806557243
  S         4.1782415846        1.6786716305       37.1785263586
  C         4.3187080004       -1.4552640021       37.3026111857
  H         3.0385597029        0.3554304639       16.1622392725
  H         3.8702441404       -0.5693039858       17.4081624811
  C         1.7197241164       -0.9401200106       17.2746862642
  H        14.8200559596        3.1885995680       24.5213453014
  H        15.3134397152        3.6177454332       22.9098505765
  C        16.6504018120        2.2722243513       23.8940797944
  H        10.5709857202        9.2214408670       13.3208427458
  C        11.2861473039        7.8481476002       12.0911534987
  H         3.6611362805       -1.0574677330       38.0983978107
  H         3.7691835122       -2.3770399605       37.0889663565
  C         5.6716451266       -1.6404375211       37.9203513365
  H         1.8020821044       -1.6368841853       16.4302757721
  H         0.8331981364       -0.3603428301       17.1518551529
  C         1.8052803327       -1.7048416353       18.5931586114
  H        17.1149410292        2.7653649449       24.7569846274
  H        16.5254560657        1.2249413179       24.0434287488
  C        17.6910972667        2.4771078109       22.7689666346
  S        11.6643194770        6.2716598086       11.4587046575
  C        11.3863070048        8.9360311193       11.1297023177
  H         5.5788651517       -2.0432588047       38.8990237818
  H         6.2392689768       -2.3428609750       37.3013776383
  H         6.1538191699       -0.6867910043       37.9989393692
  H         1.0992265687       -1.2321437521       19.2644071146
  H         2.7694297968       -1.6811806114       19.1228868316
  H         1.4793534183       -2.8076155080       18.6212307559
  H        17.4704649442        1.7047909250       21.9842870079
  H        18.7230781582        2.4667791483       23.1454173848
  H        17.3761304924        3.4015711116       22.2270292680
  C        11.8501407926        7.1099294018        9.8626413917
  N        11.8487449300        8.4766159246        9.9540269720
  O        11.2865144368       10.1278362939       11.3984884542
  S        12.3824289355        6.4102395160        8.3449226909
  C        11.7123965606        9.4270480971        8.8208690802
  H        12.1750288590       10.3572203398        9.0423353447
  H        12.2568730715        9.1022669544        7.8925381094
  C        10.2713342283        9.5487884885        8.3698708828
  H        10.2236028860        9.6981988220        7.3307431951
  H         9.7001753337        8.7764687015        8.6990309695
  H         9.8828915332       10.4575530344        8.8531133537
  H        -4.0754507116       12.6039691229       16.7990443052
  C        -3.0128187866       12.7408866890       16.5317944430
  H        -2.3964321267       11.9052486031       16.8196521990
  C        -2.6343109376       13.8488411807       17.5936371730
  C        -2.7869559844       13.2442486401       15.1418052376
  C        -3.1173827689       13.5332822441       19.0164329976
  H        -1.6536576019       14.3361565266       17.4450344267
  H        -3.2665400744       14.6758810105       17.4720787738
  H        -3.3860616039       12.7966160290       14.3871685331
  H        -2.9468666672       14.2997331033       15.0887973798
  H        -1.7298807008       13.0733304525       14.8838773569
  C        -1.9528059990       13.1781775083       19.9047246057
  H        -3.9152709860       12.7506345622       19.1166590801
  H        -3.4992559737       14.4815102870       19.4879955394
  C        -2.2797524918       13.3342430524       21.3568791972
  H        -1.7015977393       12.2478703221       19.6394258420
  H        -1.0836785658       13.6695626829       19.5368602763
  C        -1.3003702142       12.7742376898       22.2642215070
  H        -3.3058558490       13.0111598696       21.5077350236
  H        -2.4710506101       14.3230251091       21.7434377593
  C        -0.0200304939       13.7047380335       22.4867970842
  H        -1.7313939501       12.7194774460       23.2434392863
  H        -1.0430176032       11.8279247562       21.8331535540
  C         1.1454633597       12.9809195461       23.2355859325
  H         0.2949991838       13.9125401378       21.4579031825
  H        -0.1753628126       14.6693313817       23.0267077029
  C         1.4444939085       11.6290215374       22.4810825312
  C         0.8038187941       12.1298653921       24.4069159087
  C         2.4177614880       13.8186644704       23.5495114049
  C         1.3348781406       10.4719551174       23.2546621614
  C         1.7742444278       11.2394054166       21.1726915807
  C         0.8112353667       10.7832512457       24.4734396575
  C         0.2167736240       12.7605015799       25.4509949994
  H         2.7342085582       14.4706524377       22.7424332756
  H         2.2182456324       14.5709247905       24.3522411106
  C         3.5402881659       12.9183090340       23.9786758786
  S         1.4892099710        9.0544199477       22.3526920480
  C         1.9565359785        9.9332533273       20.9849513066
  H         2.0049568471       11.9536622009       20.4485699429
  C         0.3714523168       10.1134543433       25.6048451764
  H         0.2179059794       13.8690621226       25.3813006524
  C        -0.1952134136       12.1286955711       26.5456843165
  H         3.6615403725       12.0335714988       23.4282541292
  H         3.4688583604       12.7300734008       25.0460319215
  C         4.9002072507       13.5984787149       23.9771846637
  C         2.3891711845        9.2983103433       19.7197698321
  C        -0.0887026018       10.8041710704       26.7510009153
  H         0.4792844938        9.0394679007       25.6698483483
  C        -0.5247504382       12.5326841503       27.8100542915
  H         5.6551932901       13.0380234962       24.5485874219
  H         4.7199353962       14.5741451890       24.3978858995
  C         5.4950052620       13.8448719604       22.5281906542
  C         2.3202375760        7.9400700203       19.3916095954
  C         2.8444802859       10.1768004613       18.5964499597
  C        -0.5007488672       10.0970305313       28.0409960948
  C        -0.6847456589       11.4340123056       28.6553560584
  S        -0.8243920708       14.0243312488       28.6017025596
  H         6.3930362087       14.4881827840       22.6200259073
  H         4.8254586835       14.3248585106       21.9083003874
  C         5.9563337111       12.5344990238       21.8701249575
  N         2.0223944821        6.8776159822       20.3271783956
  C         2.5987082223        7.4054294296       18.1496621022
  C         3.1197529403        9.6556989026       17.3422962105
  H         2.8844076513       11.2037726592       18.6549431496
  C         0.5399092777        9.2540974544       28.6985260197
  C        -1.8817168293        9.3727736724       27.9661597341
  C        -1.1159082274       11.8176401206       29.9487863927
  C        -1.2718523703       13.1824205702       30.0909296525
  H         6.5401409401       11.8392356003       22.4788923469
  H         5.0141039273       12.0134706758       21.5956693241
  C         6.7338071065       12.8177232347       20.5989198950
  S         2.1558197009        5.4464695451       19.5908766390
  N         2.4990698596        5.9965363649       18.1246582895
  C         3.0061723374        8.2053867595       17.0581700584
  H         3.2693980301       10.3304462891       16.5058634085
  H         0.8137988037        8.3662399259       28.1367075767
  H         0.0590422746        8.9181470495       29.6084915461
  C         1.7940561375       10.0649108725       29.0299889915
  H        -1.7859489129        8.3990691932       27.5491216684
  H        -2.0208454334        9.2125425664       29.0372851230
  C        -3.0806558371       10.0170048923       27.3764218516
  H        -1.1553389295       11.0617711442       30.6904956528
  C        -1.6071168450       13.8990041671       31.3393734636
  H         7.0274845486       11.7838005109       20.3817567348
  H         7.6142986714       13.2867307110       20.8841250893
  C         5.8619022191       13.3807298116       19.4631474617
  C         3.1247133353        7.5850917591       15.7459557402
  H         2.1275076075       10.4377414010       28.1017916147
  H         1.5539493762       10.8911195809       29.6764517613
  C         2.8204733901        9.3397356604       29.8219745026
  H        -2.8987832657       10.1160423568       26.3180257018
  H        -3.1453351201       11.0180562597       27.7322427552
  C        -4.4445896943        9.3589982747       27.5394351155
  C        -1.7252257346       15.3269824193       31.4385132892
  C        -1.9934013530       13.0731630099       32.4895648760
  H         5.0821373861       12.6016635686       19.2048998747
  H         5.3317263539       14.3074148796       19.7028382162
  C         6.6444316045       13.5400764206       18.0490080278
  H         3.0628888840        6.4710591616       15.8412369741
  C         3.4988895790        8.0483173681       14.5373837538
  H         2.8056887699        8.3123335045       29.3966750349
  H         2.5048501854        9.1973030290       30.8622943966
  C         4.2972211297        9.8247217687       29.5653491518
  H        -4.4439472523        8.4414674312       26.9942148322
  H        -4.6813144887        9.1847438724       28.5632985567
  C        -5.5176854488       10.2925825844       26.9053834804
  N        -1.4310006679       16.2996212806       30.4429360405
  C        -1.9661962606       15.9442030458       32.6571835126
  C        -2.2290866640       13.6926069490       33.7529229440
  H        -2.0361529456       11.9856455056       32.3696832613
  H         6.7381769328       12.5704811870       17.6637966714
  H         6.0971031302       14.1440057370       17.3728099859
  H         7.6475335002       13.8782881022       18.1693641169
  S         3.9846096878        9.7150126123       14.0705875049
  C         3.6284222758        7.1045415979       13.4523234040
  H         4.3048937134       10.2079665667       28.5536107721
  H         4.5399154952       10.6592308323       30.2040058827
  C         5.2999371700        8.6131217898       29.6751674092
  H        -5.0872843371       10.8343301461       26.0736314547
  H        -5.9700951005       11.0206886484       27.5461996303
  C        -6.5570327797        9.3853835547       26.3630165389
  S        -1.3920678519       17.7993570217       31.1377813897
  N        -2.0546376482       17.3586227094       32.6338873427
  C        -2.2664718129       15.1795706433       33.8644007403
  H        -2.4309617220       13.0364282281       34.4743292832
  C         4.2829522101        9.0771914959       12.5320128892
  N         4.0397945286        7.7825257631       12.3575449706
  O         3.3959772981        5.8764201197       13.5129880786
  H         6.3791701467        9.0686632839       29.6387399025
  H         5.3828568450        8.0319474296       28.7511308657
  C         5.1794803545        7.7936218570       30.9024848583
  H        -6.1555446662        8.6517397500       25.6439331732
  H        -6.9807746559        8.7749389391       27.0824453727
  C        -7.6402931778       10.2695210503       25.6614991211
  C        -2.4467650595       15.8442451329       35.0993628478
  S         4.3946385337        9.9932459265       11.0728056157
  C         4.0465940167        7.0112285554       11.1144038652
  H         5.1702626949        8.3957256659       31.8555194355
  H         4.2767869303        7.2794304624       30.8857425781
  C         6.4019574568        6.9490365472       31.1429380594
  H        -7.1443466187       10.8885918886       24.9204688495
  H        -8.0061208703       11.0436066399       26.3748455823
  C        -8.8503589945        9.5933675766       25.1080699752
  H        -2.1919984608       16.8911561046       35.1515993159
  C        -3.1124671956       15.4978460989       36.2665807696
  H         4.8569464214        7.4435300766       10.5155179523
  H         4.2230184507        5.9387000947       11.2465060303
  C         2.6641993782        7.0949869456       10.5087641241
  H         6.2066452322        6.3572511705       31.9770218440
  H         7.1991447341        7.6398219089       31.4118899292
  C         6.7076725801        6.0766804228       29.8777751237
  H        -8.9898113352       10.2145622238       24.2175442819
  H        -8.7097167522        8.5842505607       24.7843048740
  C        -9.9850189711        9.7480801408       26.1091980717
  S        -3.8108535134       13.9697909277       36.6395693937
  C        -3.2350406718       16.5376497833       37.3428320916
  H         2.1652670319        7.9850815061       10.8332548291
  H         2.7037125654        7.1279122155        9.3895826606
  H         2.0869023611        6.1586612686       10.7093157390
  H         5.8162065343        5.4746231397       29.5540720308
  H         7.4886771337        5.4163913482       30.1840778278
  H         7.0405681277        6.7148236780       29.0088297181
  H       -10.8477855723        9.2482154634       25.8138080891
  H       -10.3255851878       10.7519219039       26.4884371470
  H        -9.6905806398        9.2885517590       27.0578996937
  C        -4.1885959857       14.6329041390       38.1939419665
  N        -3.8514565139       15.9339059249       38.4148852885
  O        -2.8307846703       17.6611671552       37.3587147371
  S        -4.8927443594       13.7416077161       39.5597172383
  C        -3.9564554581       16.6550839522       39.6298509949
  H        -3.9533404292       17.7646657527       39.4582450565
  H        -4.9712545612       16.3766241794       40.0383470761
  C        -2.7828595992       16.3001460877       40.6367005054
  H        -2.8510042781       16.9883347316       41.5163192083
  H        -2.8000442990       15.2497018811       40.9683218871
  H        -1.8083432332       16.6568232521       40.1878434443
