352
 i =    45200, time =    45200.000, E =        24.9277110848
  H        11.8405876282        7.2534615809       32.3861864444
  C        11.3714033585        6.3105970644       32.1872571392
  H        12.2412524080        5.8401017137       31.7313766910
  C        10.2275338398        6.2917628081       31.2269481575
  C        11.1694704896        5.4975859240       33.4950177283
  C        10.4113385954        5.3756147746       30.0562077183
  H         9.3186307027        6.0218100947       31.8169608050
  H        10.0616178596        7.2775935879       30.7336919632
  H        11.2025676643        6.2552384727       34.3640700855
  H        10.2989857345        4.8565727135       33.4323738104
  H        12.0154331668        4.7819175338       33.6288287095
  C         9.4880421695        5.4355282116       28.9580540802
  H        10.3734674405        4.3724844494       30.3488005679
  H        11.4641602705        5.5291578798       29.7682695762
  C        10.3419216768        5.7266472235       27.7248684520
  H         8.9736315599        4.4472680933       28.8938880932
  H         8.7886152101        6.2465891764       29.1936200567
  C         9.8423971992        5.1577665752       26.3962649355
  H        11.3463367418        5.3681872862       27.6292056533
  H        10.5190779631        6.8838946925       27.6616253676
  C         8.5096346061        5.8422247857       26.0168969383
  H        10.5548175730        5.3245343563       25.6459746880
  H         9.6375201417        4.0339834002       26.3468437555
  C         7.3337141714        5.1494803186       25.3283856921
  H         8.1321882929        6.1865792977       26.9666647371
  H         8.6696328459        6.7545263223       25.5297302628
  C         6.9413071609        3.8516451906       26.0577527696
  C         7.7145207396        4.4242132331       24.1931004724
  C         6.0900804449        6.0325419535       25.2490599513
  C         7.1279501352        2.7288107973       25.2986735052
  C         6.5072015522        3.5513866099       27.3596177992
  C         7.6316299631        3.0962047926       24.1100939457
  C         8.1384059502        5.1348860287       23.0232132149
  H         6.3346691710        6.8756215191       24.5997371084
  H         5.8122945531        6.4363015879       26.2167841123
  C         4.8791356943        5.3067346228       24.6520505780
  S         6.6907178408        1.3011662846       26.0614896080
  C         6.3456987265        2.1674735409       27.4746037981
  H         6.5515984593        4.3463875929       28.0840387972
  C         7.9851057066        2.4918371031       22.9045324419
  H         7.8629918738        6.1340432748       23.0262422162
  C         8.4563748704        4.5214534200       21.8583537654
  H         5.2310992790        5.0810441819       23.6877241668
  H         4.6934046055        4.2903823828       24.9485339286
  C         3.5735472782        6.0681930265       24.6247130870
  C         5.9136759059        1.5122489986       28.7211021044
  C         8.4306227874        3.2008180117       21.8022120419
  H         7.9622337142        1.4673625792       22.8235069567
  C         8.7868033258        4.9920409538       20.6357827748
  H         2.8135953354        5.6975172012       23.9687052002
  H         3.8257260482        6.9982170959       24.1180902514
  C         2.7707128213        6.1792351654       25.9154891563
  C         5.7830422453        0.1431899805       29.0213477794
  C         5.4960506052        2.4121801169       29.9011910814
  C         8.8640337270        2.5218720915       20.5369274933
  C         9.0561500136        3.9077533592       19.8412562137
  S         9.0313500527        6.5263426975       19.8306476254
  H         1.8395029319        6.7828412357       25.6976976872
  H         3.2095091975        6.8302403641       26.6006650204
  C         2.4474930575        4.8018537322       26.5438750790
  N         5.9466750083       -0.8816486170       28.1269436559
  C         5.5703661000       -0.3264791119       30.2893479938
  C         5.2090310266        1.9006061263       31.1129266907
  H         5.3244230474        3.4962258550       29.7869446091
  C         7.7581990018        1.6668992931       19.8511352912
  C        10.2331190250        1.8115510403       20.6592214331
  C         9.4663168251        4.3236118173       18.5786237586
  C         9.5138721049        5.6738921200       18.4630204867
  H         2.0139407026        4.2415671823       25.7383906781
  H         3.2984446154        4.3707145423       26.8944733037
  C         1.3763932228        5.0280231227       27.6905636391
  S         5.9516058956       -2.3423424598       28.8856158381
  N         5.6138632004       -1.7122726535       30.3281758171
  C         5.2856716828        0.4330113401       31.3873022467
  H         4.9486790522        2.6400564787       31.8274852124
  H         7.4145931289        0.8627475672       20.4857298996
  H         8.2012621464        1.1699800012       18.9798601822
  C         6.5576286718        2.4375991876       19.3913478330
  H        10.4802855629        1.3885799210       19.7124122336
  H        10.2519095216        0.9978960313       21.3657113054
  C        11.3643893834        2.8339118669       20.9350715680
  H         9.8321479302        3.5153314481       17.9172575389
  C         9.7794362409        6.4218001194       17.2310153817
  H         1.0525331766        4.0087640671       28.1028808705
  H         0.4298942386        5.6052858852       27.4973601580
  C         1.9802359128        5.6887745464       28.8697106446
  C         4.9903931881       -0.2080618659       32.6342480909
  H         6.7314667161        3.1024407513       18.5868911550
  H         6.3302973757        3.1513251332       20.1803545670
  C         5.4353752256        1.5573989177       18.9786307508
  H        11.2362690718        3.3381796111       21.9271364819
  H        11.4344699066        3.6143767469       20.2030496557
  C        12.6854921521        2.0042131248       21.0807482895
  C         9.9390635851        7.8588942132       17.1139727660
  C         9.9552035806        5.6291198954       15.9909827327
  H         2.9724938471        5.2623207043       29.1081902130
  H         2.1981167143        6.7465715363       28.6460952220
  C         1.0613564543        5.6066311973       30.1687112566
  H         4.9483086815       -1.2898978015       32.6228938468
  C         4.7291828638        0.2282050387       33.9402289940
  H         5.1390103601        1.0737658462       19.8891030514
  H         5.8185643861        0.8071787641       18.2932271668
  C         4.2937613468        2.4050487716       18.4108022643
  H        12.6508914239        1.2529507398       21.8642076507
  H        12.8451851822        1.4386061822       20.1332357123
  C        13.8836278979        2.8190412136       21.5126465977
  N         9.6893361876        8.8443186500       18.1158272111
  C        10.2572521735        8.4697712469       15.9390412012
  C        10.4458595721        6.2286689236       14.9075266669
  H         9.7271928876        4.6219025061       15.9448676567
  H         0.0415604816        5.6489656011       29.7867788992
  H         1.3122044302        4.6284529932       30.6287728637
  H         1.3713936564        6.4541514055       30.8998073661
  S         4.6672162048        1.8172118059       34.5530586191
  C         4.6217940501       -0.8283592907       35.0284558979
  H         4.2099742588        3.3094579237       18.9971507061
  H         4.5642907947        2.6613755871       17.4399334306
  C         2.8915017546        1.6203472411       18.3626763418
  H        13.6318455919        3.9293780317       21.3432663280
  H        14.7366782742        2.6692821533       20.8691321653
  C        14.2410980424        2.6776173320       23.0192278917
  S         9.7164379815       10.3317908886       17.3912260132
  N        10.2069226039        9.8589872827       15.9661441182
  C        10.7096317869        7.6875040866       14.8222592663
  H        10.6357727332        5.6792149601       14.0275663474
  C         4.2586095112        1.1338582984       36.1263416217
  N         4.2851011708       -0.2204049293       36.1780215815
  O         4.7378316740       -2.0199027579       34.8811172572
  H         2.0356593632        2.2598146546       18.0341784003
  H         2.6611760875        1.0933914919       19.3528799031
  C         2.8850522923        0.5091964691       17.2847549623
  H        14.8304087926        3.5688523604       23.1881750834
  H        13.3307353827        2.8142168173       23.6234049925
  C        15.0530778142        1.4344031298       23.2554659017
  C        11.0792675425        8.4663085896       13.6241708383
  S         3.9711676255        1.9338412986       37.6409190456
  C         4.2287476655       -1.0039071223       37.4282938183
  H         2.7020231066        1.1078418639       16.4008244326
  H         3.8357418519       -0.0214064353       17.2326182728
  C         1.9188549870       -0.6455848090       17.3306301027
  H        15.1495895318        0.8248108763       22.3033271544
  H        14.5680146189        0.8460559042       24.1155956518
  C        16.5433039337        1.7415678919       23.5630794777
  H        10.9266579870        9.5230903696       13.7298488816
  C        11.4743493323        8.1078887320       12.3856580647
  H         3.4929062996       -0.6426730760       38.1705949463
  H         3.7980145295       -1.9602840092       37.1842682232
  C         5.5930461154       -1.1380508396       38.1958057819
  H         1.5341151086       -0.7818092191       16.3783354757
  H         1.0217941744       -0.2442302583       17.8301232345
  C         2.4992493011       -2.0180583893       17.8149730027
  H        16.5411512854        2.5503970992       24.3436977093
  H        16.9145178143        0.8768336479       24.1245125614
  C        17.4923247225        1.9139961789       22.4271089559
  S        12.0074997332        6.5880882680       11.9059675199
  C        11.4614055162        9.1476864162       11.3135518556
  H         5.6515197580       -0.4528270485       39.0169438004
  H         5.8778057549       -2.1707364047       38.4702765661
  H         6.3548158951       -0.8680242809       37.4302462130
  H         3.2720140765       -1.8764583834       18.5563094603
  H         3.1004047731       -2.3355814931       16.9117065078
  H         1.6489008222       -2.7174331445       18.1116826380
  H        17.4414773909        1.0589106419       21.7162992491
  H        18.5168919773        1.8584225998       22.7851506404
  H        17.3561669646        2.9233303488       21.9323658715
  C        12.2974949282        7.2826669824       10.3061369449
  N        12.0521873042        8.6216242220       10.2048051251
  O        11.2410182209       10.3328042148       11.5507956132
  S        12.9887493552        6.4713112435        8.8981443190
  C        12.2504756311        9.4737601993        9.0453377264
  H        12.1605801735       10.4975466281        9.3917839453
  H        13.2432958159        9.4368806465        8.7853224279
  C        11.3252069026        9.0765216296        7.9758233556
  H        11.8000421769        8.4374501707        7.2233171805
  H        10.4425618722        8.5594513760        8.2511610308
  H        10.9435362066        9.9608613046        7.4517248247
  H        -0.9622548171       13.7730327771       16.4810754618
  C        -1.9188291968       14.2471073771       16.4742519735
  H        -1.7587479180       15.0894547773       15.7546215943
  C        -2.3145692975       14.9332041098       17.7370808185
  C        -3.1753720105       13.6522652060       15.8747273989
  C        -2.5377898830       13.8906843797       18.8424083088
  H        -1.5327935156       15.6736974152       17.8542058822
  H        -3.2230378071       15.5221987979       17.6361869966
  H        -4.0555485390       14.3487835934       15.8770920398
  H        -3.0649420445       13.2479820750       14.8426240918
  H        -3.4284840974       12.7885281999       16.3658540909
  C        -1.5424237598       13.9445897896       19.9511747275
  H        -2.8099740043       12.8878428686       18.5376792086
  H        -3.4719512530       14.1667403990       19.2392862852
  C        -2.0816990297       13.5410122467       21.2982493078
  H        -0.6677421148       13.3101822569       19.7135265446
  H        -1.1794559946       14.9942574574       20.0929980799
  C        -1.1239824257       12.8231313394       22.2190557863
  H        -2.9776771504       12.9390908569       21.1194686353
  H        -2.3995499120       14.5063256343       21.7637774664
  C         0.0363665139       13.7620299851       22.5188246287
  H        -1.6515043624       12.4444990637       23.0878810448
  H        -0.7925495698       11.9715849504       21.6005022522
  C         1.1265756145       13.0513847655       23.3998696160
  H         0.4731956802       14.2035936069       21.6265661304
  H        -0.3603522947       14.6255374250       23.0782480499
  C         1.4311689524       11.7053209617       22.7412489146
  C         0.6060133424       12.3507361627       24.6194404255
  C         2.3912081095       13.9322948311       23.5707676045
  C         1.2588065721       10.5997890954       23.5301036272
  C         1.9470003808       11.3618132385       21.4894396403
  C         0.6922870180       10.9796165623       24.7106344954
  C         0.0809562434       12.9150256484       25.7191004080
  H         2.7022896921       14.2960737023       22.5702563069
  H         2.2578467590       14.7954493562       24.1412855226
  C         3.6524193486       13.1626653544       24.0398623349
  S         1.4802988563        9.1168911122       22.7125667709
  C         2.0688238532       10.0146961908       21.3154121208
  H         2.2029901994       12.1726612484       20.7632358503
  C         0.1944500652       10.3440917244       25.8331511539
  H         0.0926463517       13.9745151319       25.7259467455
  C        -0.3167162596       12.3214574484       26.8338573608
  H         3.8644121604       12.2857790138       23.3313096705
  H         3.4535957196       12.7189820144       24.9637774368
  C         4.8943391343       14.0062253888       24.1844445340
  C         2.3416202661        9.3595852632       20.0175779765
  C        -0.1857404281       11.0090121485       27.0164750979
  H         0.2460037802        9.2765429409       25.8958577778
  C        -0.7582927049       12.7069895913       28.0870705734
  H         5.6996826906       13.5161434245       24.7339926919
  H         4.7326272046       14.8977920519       24.7982372639
  C         5.5272373608       14.3868468878       22.8730737362
  C         2.4086589952        7.9427628169       19.8126431248
  C         2.7744127906       10.1911368668       18.8698593269
  C        -0.5192443495       10.2812723212       28.2890699508
  C        -0.8582983903       11.6430623353       28.9676793666
  S        -1.0381694856       14.1913727624       28.9083268280
  H         6.3145835239       15.0695475848       23.1013593989
  H         4.6987001427       14.9367019566       22.3382998423
  C         6.0603589290       13.1684411758       22.0793796733
  N         1.9595086425        6.9977840005       20.7142579800
  C         2.7760517189        7.4279163357       18.5699519850
  C         3.2293335713        9.6191834197       17.6942686390
  H         2.9373379713       11.2578511328       18.9763870045
  C         0.6088949631        9.5116084805       28.9010331680
  C        -1.7225866069        9.2895120069       28.2165526124
  C        -1.2336482168       12.0542940269       30.2243258015
  C        -1.3915814844       13.4107341119       30.3217888467
  H         6.4173270822       12.4723547149       22.8317973387
  H         5.2406847515       12.8129166522       21.4908362271
  C         7.3458140083       13.5431018178       21.2898290386
  S         2.1520531329        5.5091766680       20.0151112190
  N         2.6091099860        6.0187421072       18.5109827494
  C         3.1773410914        8.2037312184       17.4677922269
  H         3.5294716797       10.3538804694       16.9734003367
  H         1.0546321492        8.8471719289       28.1669022965
  H         0.2616444018        8.9049443867       29.6931719436
  C         1.7462091704       10.3912390561       29.2443186337
  H        -1.6649008640        8.7305691846       27.2603909018
  H        -1.9138842809        8.7043655680       29.0760653188
  C        -3.0650698001       10.0425021719       27.9803891589
  H        -1.3943345006       11.2613387113       30.9504876122
  C        -1.6627861507       14.1004943510       31.6121522489
  H         8.1783436851       13.2060615001       21.8474766718
  H         7.3447568571       14.6253671429       21.0984537645
  C         7.3823256125       12.8027990226       19.9129320423
  C         3.4620272660        7.4837926245       16.2377601651
  H         2.2347598953       10.8925076613       28.3401786175
  H         1.4883425430       11.1419786088       29.9599613666
  C         2.8195467169        9.5504240620       29.8861648622
  H        -2.9088662708       10.6374642305       27.0990739255
  H        -3.3109761933       10.7901720974       28.7353104019
  C        -4.3483488621        9.1616350211       27.8859183784
  C        -1.6631715682       15.5001401290       31.8223442292
  C        -1.7279614760       13.2906490084       32.8305893879
  H         8.3454446581       12.5305216226       19.5493660150
  H         6.8697382732       11.8271804784       20.1016264512
  C         6.5456392471       13.4439065924       18.7225285838
  H         3.3596289200        6.3808249217       16.3169250990
  C         3.7812220653        7.9557162161       14.9692035160
  H         3.2785386236        8.7916457129       29.2157757312
  H         2.3686879373        8.8958411824       30.6292098965
  C         4.0131763505       10.3757239539       30.3323872039
  H        -4.2146041074        8.4688529841       27.0884760618
  H        -4.4041661644        8.7007286867       28.8822131213
  C        -5.6601682046        9.8405553678       27.6755534894
  N        -1.6206797719       16.4602339564       30.8310018472
  C        -1.7836105266       16.0630935758       33.0766249808
  C        -2.0168652540       13.8089087789       34.0805129481
  H        -1.7234931454       12.2373191120       32.7708544556
  H         5.4836711557       13.2850018952       18.9412620505
  H         6.6565167376       14.5424195402       18.6488027984
  H         6.7695944632       13.0155688360       17.7480857758
  S         3.9415585697        9.5690954385       14.4846796859
  C         3.8416638235        6.9507909807       13.8280075344
  H         4.1562699168       11.1762345181       29.5957397313
  H         3.8911886058       10.7828320771       31.3469440070
  C         5.2051688257        9.4748440785       30.2557940443
  H        -5.4797385693       10.8752798114       27.9053320755
  H        -6.4805741477        9.5028504714       28.3274911248
  C        -6.0857568604        9.6564097332       26.1571989714
  S        -1.4264984859       17.9615537489       31.5879645853
  N        -1.7469537884       17.4751092742       33.0862133883
  C        -2.1473096456       15.3284038680       34.2086985464
  H        -2.1393259419       13.2400594880       34.9882711079
  C         4.1624975278        8.8868716757       12.8726547546
  N         4.1521101050        7.5974808322       12.6967630212
  O         3.6034472142        5.7523323390       13.9721987974
  H         6.0282745422       10.1434443400       30.4494982779
  H         5.3018264401        9.1954523340       29.2584320849
  C         5.2421217925        8.3573403157       31.2056125779
  H        -5.1709415455        9.6775265509       25.5370571848
  H        -6.7016962835        8.7353656809       26.0023709457
  C        -6.9352295822       10.8724830892       25.8810664812
  C        -2.3600739239       16.0391295112       35.4467991869
  S         4.5766107086        9.9067958803       11.5096977289
  C         4.1866231749        6.8622062750       11.4426520376
  H         6.1924804514        8.6523102978       31.8059300155
  H         4.3904026380        8.4156749020       31.8550184373
  C         5.4010296018        6.9806178843       30.5174028255
  H        -6.4306887335       11.5586765588       25.2335000489
  H        -7.1980370482       11.3493742470       26.7821512694
  C        -8.1709337593       10.4965037191       24.9709975740
  H        -2.0176204943       17.0637920844       35.4593730014
  C        -3.0715372719       15.7347302224       36.5950310544
  H         4.9360484838        7.3259849848       10.7923404934
  H         4.5579897319        5.8963386972       11.5853583603
  C         2.8197769946        6.8283167444       10.7708637879
  H         6.4131519444        6.9178119317       30.0900210981
  H         4.6619116611        6.9104827840       29.7548347004
  C         5.1646659721        5.9302634444       31.5651086729
  H        -8.5280319919       11.2087846714       24.2431784504
  H        -7.9169879534        9.6863524679       24.3329181361
  C        -9.3446090677       10.0764490185       25.7554884811
  S        -3.8321484901       14.2273267058       36.8083458023
  C        -3.2493961614       16.6371097213       37.7477289017
  H         2.8194154784        7.2895888360        9.7546214970
  H         2.3628125831        5.8225266772       10.7621740215
  H         2.1622407128        7.2978061431       11.4199830622
  H         5.0688862123        6.3137942563       32.6247218316
  H         5.8491784025        5.1006877767       31.5554912972
  H         4.1649610809        5.4626412331       31.3919190278
  H       -10.0859407547        9.4721439102       25.2642957219
  H        -9.7773955316       10.9365678952       26.1296034202
  H        -9.1000255269        9.6043710309       26.7582068165
  C        -4.2385417426       14.7469892274       38.3958573916
  N        -3.8814651739       15.9873186172       38.7222110049
  O        -2.7380378947       17.7508558882       37.7831680140
  S        -4.8905517680       13.6722635152       39.6057179336
  C        -3.9118976148       16.6051948918       40.0294420381
  H        -4.1020858549       17.6530329190       39.8429442269
  H        -4.8246510312       16.1412755697       40.4131234678
  C        -2.5855736644       16.2198108984       40.7309813308
  H        -1.7790392323       16.7853105743       40.2620409494
  H        -2.6374816089       16.2473163619       41.7913938696
  H        -2.2755696912       15.1728542027       40.4551329997
