352
 i =    30700, time =    30700.000, E =        25.1054862167
  H        11.8068258710        7.2751390234       32.6812373659
  C        11.7621276845        6.1797154924       32.7608384969
  H        12.7258333294        5.7433592372       32.4519461519
  C        10.8328961784        5.8255923730       31.6417717253
  C        11.1687826405        5.8927316085       34.1234725898
  C        11.3463148907        5.9326838415       30.2172314860
  H        10.4801775073        4.8242151947       31.7711167013
  H         9.9626139809        6.5158093409       31.6616524958
  H        10.3342638457        6.5003599517       34.4457370911
  H        10.8300178718        4.8502989847       34.0925278864
  H        11.8694215547        5.8475788021       34.9782401550
  C        10.2965379427        5.6497505732       29.1457569290
  H        12.1575975819        5.2181771226       30.0596458785
  H        11.7071304643        6.9193317091       30.0091525505
  C        10.7544206698        5.5011238616       27.6968116959
  H         9.7011197704        4.8521050358       29.5118428482
  H         9.6615152380        6.4661542140       29.2894566399
  C         9.6888683643        5.0137252779       26.7345696646
  H        11.4945593282        4.7399864549       27.6874421982
  H        11.2480065739        6.3667590327       27.3342075112
  C         8.5278958695        5.9393190878       26.4475217049
  H        10.1850798739        4.6581963255       25.8321056054
  H         9.4250283861        4.0155380232       27.1344586276
  C         7.3601623925        5.4111049910       25.6278560529
  H         8.1215241715        6.1614233097       27.4546261348
  H         8.7936451269        6.8436594504       25.9683976812
  C         6.9595785528        4.1247354887       26.3138181526
  C         7.7980810078        4.6193867132       24.4228742409
  C         6.0428261920        6.2966294636       25.3935334147
  C         7.0509145008        2.9808119083       25.5580861801
  C         6.3976610597        3.7840264321       27.5367612855
  C         7.5234622428        3.2833813520       24.3337234010
  C         8.2166788387        5.2022937191       23.1905970134
  H         6.2456332977        7.1029221246       24.8097268405
  H         5.6843146874        6.6461390021       26.3515245291
  C         4.9149812310        5.4689095497       24.7225426746
  S         6.6882777817        1.5192288121       26.3687978054
  C         6.2643415404        2.3861824898       27.7995626096
  H         6.1187188918        4.5786667764       28.2673676428
  C         7.8593541726        2.6014839523       23.1444184778
  H         8.2199662841        6.2941685714       23.1362556993
  C         8.5197653008        4.5382415017       22.0781997756
  H         5.2378508318        4.9372750091       23.8103692966
  H         4.6987131157        4.7771208453       25.4533255459
  C         3.6074265157        6.2107196774       24.5102312927
  C         5.7076125812        1.7261422147       29.0749679798
  C         8.2986226127        3.2131951382       21.9642879495
  H         7.7186167373        1.5646921275       23.1202809034
  C         8.8156692787        4.8242768980       20.7830996276
  H         2.9160184485        5.5984503510       23.9941278322
  H         3.8336348112        7.0516694966       23.8255917695
  C         2.8219248906        6.6176057825       25.7816511207
  C         5.7420391103        0.3077431824       29.2802706565
  C         5.2158555669        2.5784443381       30.2012171841
  C         8.6361409040        2.4059249432       20.7594758313
  C         8.9247857183        3.7109002339       19.9840559324
  S         9.1259231336        6.2749545780       19.9648315925
  H         2.0568528188        7.3470385232       25.5990188430
  H         3.4632945426        7.2204536219       26.4211991056
  C         2.2318659539        5.3828455846       26.5190846759
  N         6.2270899114       -0.6614232320       28.3457325659
  C         5.4954329606       -0.2020731557       30.5405704022
  C         4.9413740538        2.0286897560       31.4445082329
  H         5.1834559890        3.6188681494       30.0943073003
  C         7.4375459625        1.6431073678       20.1479212831
  C         9.8478918058        1.4782330201       21.0090788644
  C         9.4004178674        4.0162670919       18.7232156437
  C         9.5370978154        5.4045127220       18.5225340661
  H         1.5036423555        4.8389832060       25.8707564306
  H         3.0022607470        4.6981242112       26.7562718774
  C         1.5132981073        5.7031771461       27.8040542070
  S         6.1898425571       -2.1020217734       29.1569222598
  N         5.6456166121       -1.5958343775       30.6209461278
  C         5.0966201110        0.5730668101       31.6482018953
  H         4.5624157299        2.6579121705       32.2655126880
  H         7.2780684776        0.7025418162       20.6956440646
  H         7.6562388939        1.3086143408       19.1742274453
  C         6.2004840949        2.4874582943       19.9876390594
  H         9.7196790094        0.6526659773       20.3366696992
  H         9.8884118444        1.0241250685       22.0231890767
  C        11.2210724091        2.1479936309       20.9208576278
  H         9.5691073282        3.2517850066       18.0523569493
  C         9.9356489324        6.0722033488       17.2356719650
  H         0.6560361957        4.9622626758       27.7364802846
  H         1.1065982543        6.7524245507       27.6505221238
  C         2.4462038426        5.5467973962       28.9660324575
  C         4.8984909602       -0.0643708673       32.9002960805
  H         6.4464491861        3.2510928032       19.2513742210
  H         5.9900509164        2.9434361141       20.9336065802
  C         5.0429411889        1.6545949607       19.4521094486
  H        11.2894464459        2.9908142828       21.5822210267
  H        11.3394648405        2.6395819876       19.9542149372
  C        12.3603950607        1.3429398029       21.3860104809
  C         9.8867480528        7.4846742315       17.0124615234
  C        10.1728790070        5.2462634306       15.9683733326
  H         2.7234608775        4.5334656395       29.0589846008
  H         3.3809926226        6.0560973460       28.7978904347
  C         1.8369160165        5.8574409224       30.3441309544
  H         5.1220587211       -1.0919427528       32.8587658453
  C         4.6300854195        0.4179866533       34.1959506254
  H         4.6417341397        1.1872829535       20.3321158479
  H         5.3654443668        0.8714287755       18.7665707743
  C         3.9202013833        2.4965527819       18.9989968851
  H        12.2429322456        1.0996948218       22.4564007225
  H        12.3508844054        0.3549850515       20.8125858503
  C        13.6008260194        2.1877978186       21.1689434692
  N         9.5269091074        8.4632918038       17.9304136351
  C        10.2461918098        8.0728114691       15.7975079466
  C        10.4506912716        5.8552416883       14.7451467092
  H        10.1341935096        4.1979699250       15.9902723188
  H         1.3402198244        6.8679244272       30.4368863777
  H         1.1814024089        5.0906554217       30.7207577329
  H         2.6378795571        5.7919588705       31.0904743430
  S         4.2855548234        2.0547473987       34.7459205796
  C         4.6474725947       -0.6104007656       35.2951641290
  H         3.6306588836        3.0047242617       19.8845335443
  H         4.1051748059        3.1814264557       18.2267615741
  C         2.6838868352        1.5698406320       18.7394039888
  H        13.3795862913        2.9877813176       20.4273797294
  H        14.4696598770        1.7241947145       20.8022259327
  C        14.1047777629        2.9343695431       22.4113451202
  S         9.7743596437        9.9214041112       17.2482232317
  N        10.2594718971        9.5211839477       15.7864965325
  C        10.5246818544        7.2858531356       14.6076558255
  H        10.6881206845        5.2829534613       13.9019624828
  C         4.2381065365        1.3342116026       36.3706403551
  N         4.3584651631       -0.0298213454       36.4827904346
  O         4.6482771277       -1.8299121034       35.1229659414
  H         1.8524783762        2.2051715980       18.5070179300
  H         2.5544928427        0.9575519398       19.7444840451
  C         2.7723418616        0.7323475407       17.4937666870
  H        14.6049957225        3.8202062821       21.9755060679
  H        13.2252296627        3.3714733438       22.9724829713
  C        15.0802858213        2.0419547270       23.1699813871
  C        10.7716004578        8.0568450677       13.4098708483
  S         3.8603513180        2.2632111808       37.7955003534
  C         4.3066774456       -0.7284673268       37.7199297398
  H         2.0854941503        1.0621679451       16.6798198936
  H         3.7745885317        1.0049631146       17.1659338857
  C         2.6523201665       -0.8335009505       17.6641315157
  H        15.2848088447        1.2589612396       22.4897246253
  H        14.4346221371        1.6419488252       23.9339996563
  C        16.2707345473        2.8193845097       23.7218254129
  H        10.4951317713        9.0790160489       13.4985871336
  C        11.4130135284        7.7462184678       12.2128257755
  H         3.4522529014       -0.2709543258       38.3211356525
  H         4.0450602946       -1.7724284717       37.5455980920
  C         5.6587817632       -0.6557263477       38.4583816470
  H         3.4798903957       -1.0483865224       18.3225574563
  H         2.8679712065       -1.2969711039       16.7270980007
  C         1.2701338998       -1.2982325066       18.1433509182
  H        15.9347640552        3.8077558178       24.0109872644
  H        16.4908726120        2.2715226751       24.6082576103
  C        17.3603876488        2.9210682732       22.6558824399
  S        12.1051351272        6.1709893587       11.8465090350
  C        11.5155623442        8.7869005475       11.1225962814
  H         6.2462146969        0.0338124731       37.9589885108
  H         5.5435021687       -0.2355946618       39.4494829030
  H         6.1936029119       -1.5476308511       38.4900936968
  H         0.7430553722       -0.4785417750       18.7130814074
  H         1.3433050961       -2.1335446790       18.7909060329
  H         0.6174054227       -1.5867560434       17.3120810322
  H        17.3094859042        3.8365538193       22.0439729825
  H        17.3129686536        2.0455302320       22.0099877972
  H        18.3716021190        3.1848801048       22.9987970518
  C        12.4359077775        6.8631785608       10.2566049289
  N        12.0291428825        8.1678597895       10.0572357913
  O        11.0112272755        9.9397826894       11.0913762789
  S        13.1596800984        5.8511798837        8.9906293865
  C        12.0629343212        8.8683239691        8.7793036693
  H        12.5071006845        9.8342629000        8.8802516992
  H        12.8294039412        8.4274879389        8.0542936852
  C        10.6970250496        9.0108598558        8.1312113034
  H        10.5186449516        9.9599046476        7.5986121556
  H        10.4599553469        8.2186092168        7.4480878354
  H         9.8012635881        9.0996835124        8.7498088238
  H        -1.6211182045       14.3123006491       16.1955653268
  C        -2.6608348890       13.9804770719       16.3005637888
  H        -3.3040644587       14.7905142766       16.5498523638
  C        -2.7305024621       13.1988284724       17.5957275288
  C        -3.1438893827       13.2653367557       15.0832927661
  C        -2.3580261946       13.9659010985       18.9017955168
  H        -3.7106154202       12.6995520377       17.6361838240
  H        -2.0305867289       12.3300286717       17.4458696186
  H        -2.5542276329       12.4219813487       14.8254667935
  H        -4.1487235069       12.8126255790       15.2673665523
  H        -3.2678122864       13.9825531548       14.2558912768
  C        -2.2646154791       12.9517704164       20.0931422675
  H        -3.2535539794       14.5831852326       19.2398257811
  H        -1.4331800638       14.5599469167       18.7000451236
  C        -2.4270734844       13.6639993798       21.4575644574
  H        -2.9883307579       12.2128753133       19.8779416286
  H        -1.3395664640       12.4380922355       19.8822202552
  C        -1.4442431744       13.1151784921       22.5213815514
  H        -3.5024473479       13.6749235541       21.7349283629
  H        -2.1863513534       14.7298253507       21.3460704338
  C        -0.1749518044       14.0237670391       22.6554603807
  H        -1.8588421674       13.2009313650       23.4956655878
  H        -1.0990615075       12.1095613754       22.2976945184
  C         1.0371724263       13.2909077362       23.3121205167
  H        -0.0247596903       14.5011689679       21.6945862989
  H        -0.4015821741       14.8476150398       23.3235935098
  C         1.3870169438       12.0017318428       22.5098880742
  C         0.6800015079       12.5544741311       24.5539440221
  C         2.2838438620       14.2238076646       23.3832552320
  C         1.3274209518       10.8763639439       23.3318430456
  C         1.9270954313       11.7376102658       21.2199891334
  C         0.8880304516       11.1840020688       24.5839345272
  C         0.1309479175       13.1431793734       25.6945378147
  H         2.3415954442       14.8398280467       22.5368185648
  H         2.0084212709       14.8553873742       24.2491408721
  C         3.5770022967       13.3641304033       23.5443546607
  S         1.7963136313        9.4371523170       22.5839155630
  C         2.1608423175       10.3371350445       21.1099169706
  H         2.2474002974       12.5523721811       20.5149191795
  C         0.4843128815       10.5039877322       25.6953027884
  H         0.1038517929       14.2634193670       25.7533490194
  C        -0.1241384376       12.3880972710       26.8026184142
  H         3.7770691257       12.6954461971       22.7443616904
  H         3.4001369415       12.7853114807       24.4941317343
  C         4.8075525856       14.1724437484       23.6008474879
  C         2.6416998161        9.7017955929       19.8805717913
  C        -0.0392566780       11.0590577581       26.8664253291
  H         0.4525499836        9.4668495603       25.6303025242
  C        -0.5593343793       12.6875910059       28.0935994533
  H         5.5876853310       13.7393555317       24.2424000238
  H         4.5407681926       15.1014829105       24.0358506917
  C         5.4231156021       14.3920388310       22.2040479121
  C         2.6505379188        8.2665766331       19.6933425151
  C         3.0092239206       10.5564709337       18.7224930304
  C        -0.4290653519       10.3252007511       28.0790786455
  C        -0.7492509195       11.6037799975       28.8804286380
  S        -0.8705223572       14.1359389985       28.8943959065
  H         6.1707469774       15.2000867763       22.3065985306
  H         4.8269029373       14.7773531237       21.4007548805
  C         6.1141208130       13.1254296282       21.7422889982
  N         2.3185863895        7.2498251554       20.6275848482
  C         2.8786898339        7.7466636908       18.4169400392
  C         3.3417417768       10.0402230093       17.4923618550
  H         2.9112540199       11.6156888766       18.7512560938
  C         0.7552481707        9.4890792517       28.6115387655
  C        -1.6472494340        9.4332988967       27.9778349556
  C        -1.0892693418       11.9322673043       30.1840349504
  C        -1.2248629099       13.2994875303       30.2885745791
  H         6.5787115227       12.6246172845       22.5786142532
  H         5.4401696000       12.2984213984       21.3896475961
  C         7.1939620285       13.3830899055       20.7493691852
  S         2.1995657375        5.8510709585       19.8623585519
  N         2.7701349422        6.3452587708       18.4379095466
  C         3.1670293360        8.5761418689       17.3062795157
  H         3.5895061187       10.6723206859       16.6494297129
  H         1.1564456047        8.8254148023       27.8648466628
  H         0.4189225813        8.9288421779       29.4246108325
  C         1.9170756885       10.3927765357       29.0470536036
  H        -1.3023207943        8.7143937757       27.2444654220
  H        -1.8449149651        8.8347218596       28.9355212746
  C        -2.9668173141       10.0795293544       27.5306327841
  H        -1.4280401015       11.2165350900       30.9110751529
  C        -1.4796448589       14.1015537742       31.5977720745
  H         7.7044214265       12.4183518425       20.6213464507
  H         7.9146559352       14.1127733294       21.1372764848
  C         6.6769531599       13.8314279986       19.3765666013
  C         3.4849709950        7.8505241215       16.0858645728
  H         2.1512720237       11.0964357859       28.2406147127
  H         1.6487164710       11.0462360300       29.9152636824
  C         3.1418096718        9.5466223125       29.5145068622
  H        -2.7774960827       10.5133378061       26.5265042871
  H        -3.2793084469       10.9900945497       28.0955155553
  C        -4.0785920497        9.0969179863       27.4965836908
  C        -1.5871740005       15.5165801614       31.7684795554
  C        -1.6173614171       13.4247409610       32.9142114921
  H         5.9963797471       14.5814591675       19.6283009753
  H         7.3526976823       14.4750614835       18.7334539588
  C         6.0596213352       12.8828662901       18.4156812825
  H         3.4650916140        6.8044915808       16.1859561555
  C         3.6814630945        8.2154466964       14.8084979938
  H         3.4735726418        8.8560639611       28.7359651793
  H         2.8836436599        8.7203351901       30.3228920858
  C         4.3372150098       10.4741908824       29.9014022467
  H        -3.8253178606        8.3728756568       26.7699086927
  H        -3.9797906031        8.6409237060       28.4908576016
  C        -5.4738710209        9.6340085616       27.1260128817
  N        -1.3823590852       16.4524970452       30.7324666820
  C        -1.8438470276       16.1450816360       32.9922001460
  C        -1.8368861957       14.0561663302       34.1470183675
  H        -1.4517666435       12.3728952867       32.9605696197
  H         6.7600033340       12.5881196797       17.6649063923
  H         5.6349009555       12.0943166077       19.0818422355
  H         5.1712852173       13.1860206885       17.8181298648
  S         3.9838815941        9.8088376089       14.1776525027
  C         3.7433170155        7.0625121940       13.8738648115
  H         4.3308646734       11.3222593775       29.2246626799
  H         4.1598484774       11.0288776674       30.8335232569
  C         5.6045850090        9.6651303973       30.0078291361
  H        -5.6154104447       10.4137029686       27.8242154207
  H        -6.1918902104        8.8953696352       27.3358474905
  C        -5.4617677453       10.1769315048       25.7149791022
  S        -1.5429633438       17.9598386505       31.3467410887
  N        -1.8555988336       17.5365389477       32.9163196158
  C        -1.9656948297       15.5119878875       34.2101596491
  H        -1.9177766415       13.4371052222       34.9810707351
  C         4.1299204289        8.9688651251       12.6211711297
  N         3.9482722311        7.6169991621       12.6788791509
  O         3.5524916254        5.8726529835       14.1151434740
  H         6.4350209222       10.3242708045       30.1051445715
  H         5.6903511622        9.1654820848       29.0749857771
  C         5.7795272521        8.6842643229       31.1487832672
  H        -4.6203967733       10.8554193992       25.4191758886
  H        -5.4345464921        9.3317915105       24.9447662949
  C        -6.8166604331       10.8609680014       25.5496528949
  C        -2.2959549925       16.2011407206       35.4281399532
  S         4.6036226374        9.7608353136       11.0983770376
  C         3.9851645099        6.6649481285       11.5703619726
  H         6.0099822116        9.1346134264       32.1765315246
  H         4.8134981309        8.1757785353       31.3098426011
  C         6.6721673405        7.4838398839       30.8633154759
  H        -6.6086261461       11.7469887593       24.8774114395
  H        -7.0570236709       11.2443040969       26.5390715891
  C        -7.9357380939       10.0313937518       24.8848033630
  H        -2.0333325437       17.3285989174       35.4154886652
  C        -2.9445288843       15.8334688369       36.6040447369
  H         4.6734866175        7.1009225985       10.9215207725
  H         4.6306888679        5.7415191163       11.6850530822
  C         2.6320523975        6.2623503334       10.9574533602
  H         7.7361146267        7.7701899825       30.7948528287
  H         6.5323662777        7.0255910628       29.8474273393
  C         6.6062814554        6.5329744909       32.0636553549
  H        -8.4436251797       10.7109798842       24.2394054305
  H        -7.6315447061        9.2774923295       24.2458173130
  C        -8.9490320650        9.6245667170       25.9826113743
  S        -3.4604061882       14.2145785932       36.9590346872
  C        -3.1612914111       16.8962318466       37.5382974850
  H         2.6947661833        5.9225823282        9.9951205754
  H         2.2249970622        5.4071236522       11.4379807546
  H         1.9408166880        7.0324571500       11.2111632031
  H         6.6934545662        7.0523836956       33.0244144184
  H         7.4000724207        5.8629758276       31.8622088506
  H         5.6767396476        6.0013748268       32.0466521612
  H       -10.0190338121        9.7096466245       25.6401141954
  H        -8.9097076554       10.3430448973       26.8690205790
  H        -8.8078089089        8.7275284362       26.5782131715
  C        -3.9256863355       14.9824322868       38.4952013354
  N        -3.7926368130       16.3309470453       38.5369477024
  O        -2.9467659317       18.0771486444       37.4366171580
  S        -4.6532037235       14.2129448041       39.8853532029
  C        -4.1710407705       17.1905272209       39.6851275569
  H        -4.2836845899       18.2213085617       39.3660722740
  H        -5.1639411392       16.9102080230       40.0389451507
  C        -3.0309266919       17.2035759851       40.6714853143
  H        -2.9074997768       16.1113952807       40.6941657116
  H        -2.0776826696       17.6798958321       40.4155462161
  H        -3.3358366733       17.6392808874       41.6608341646
