352
 i =    98900, time =    98900.000, E =        25.2843475198
  H         9.7961883221        6.0183899102       31.9760773519
  C        10.7092777126        6.6519117026       32.2198371745
  H        10.4472239941        7.5948479810       31.9065629834
  C        11.9027110311        6.1180647080       31.3578591995
  C        11.0530237490        6.4128175096       33.7210823623
  C        11.3409733113        5.5495956019       30.0017788019
  H        12.4963295954        6.9894697594       31.1896434632
  H        12.5492579593        5.3870377867       31.7972476493
  H        10.9565053684        5.3651864131       33.8771587300
  H        12.1426414913        6.6498385950       33.8808992232
  H        10.3593357701        6.8820785613       34.3866257887
  C        10.9154014657        6.5454483790       28.9443953120
  H        10.6141295082        4.7560378029       30.1547402986
  H        12.2931515838        5.1090572590       29.6037526155
  C        11.1884741553        6.0495143181       27.4401583237
  H         9.8923384494        6.5278998147       29.2118115465
  H        11.2071439569        7.5367961118       29.1754163919
  C         9.9234251300        5.3012687726       26.8413545365
  H        11.9916837030        5.3293830369       27.5353351788
  H        11.4892645804        6.8737716891       26.7938856599
  C         8.7301603932        6.1209235883       26.3410219146
  H        10.2430551667        4.6159016923       26.0320975198
  H         9.5406814910        4.6198440986       27.5699860269
  C         7.6001592540        5.2523456432       25.5596712092
  H         8.1801762990        6.5214286195       27.1733032432
  H         9.0815259433        6.9257246391       25.7809815380
  C         7.2137750198        3.8801814940       26.2726334587
  C         7.9669307876        4.5753420821       24.2823584791
  C         6.3818535861        5.9651936507       25.1447622475
  C         7.4320351327        2.8264749954       25.3563177048
  C         6.7885594266        3.5139300383       27.5948760551
  C         7.9262025004        3.2194394440       24.1555830771
  C         8.5464793130        5.2033091256       23.1915344854
  H         5.8665375763        5.2988491812       24.5248445302
  H         6.6136655721        6.8664579549       24.5537012551
  C         5.5033357428        6.5036929481       26.2554917842
  S         7.2123402385        1.3536817403       26.2398684889
  C         6.6579002906        2.2125629561       27.6809355244
  H         6.6090699813        4.2971161053       28.3248001707
  C         8.2859086966        2.5615422709       22.9902063533
  H         8.5551821445        6.2777846757       23.1022887093
  C         8.8714043426        4.5900875673       22.0231946706
  H         5.5414607878        5.8143642018       27.1123083256
  H         5.9986934367        7.4383496695       26.4201212420
  C         4.0470945259        6.6153237331       25.7578814397
  C         6.3324837814        1.4848280674       28.9200795011
  C         8.7905081954        3.2504879837       21.8546124430
  H         8.2772315111        1.5034099789       22.9142769030
  C         9.2372048688        5.0384299906       20.7546347761
  H         3.8231155420        5.7339387451       25.1146014590
  H         3.9449703535        7.5085918477       25.2041608542
  C         3.1873272726        6.6665028562       27.0184244335
  C         6.2818865067        0.0969675792       29.1138358436
  C         5.9391920748        2.2326729562       30.0817153025
  C         9.1878633332        2.5983269373       20.5458813192
  C         9.4439814298        3.9714468840       19.8893166454
  S         9.6283203242        6.5815186968       20.0011024953
  H         2.2479488131        7.2643421007       26.8800987386
  H         3.6915003556        7.0974406014       27.9211701279
  C         2.6595020724        5.2976564946       27.4879096448
  N         6.6413486123       -0.8796677494       28.1074351764
  C         6.0137471993       -0.5420875375       30.2845234624
  C         5.6746797997        1.6202378110       31.2897095414
  H         5.9129162690        3.3055649980       30.0429797471
  C         8.0599413249        1.6249096203       19.9843010281
  C        10.5745251359        1.8779318683       20.7315141709
  C         9.6858629241        4.4122853338       18.6116162864
  C         9.9032085011        5.7262849351       18.4943294274
  H         2.2763620858        4.8020992442       26.6283659576
  H         3.3951765409        4.6682086315       27.9037556268
  C         1.4801728592        5.2418016958       28.4461927784
  S         6.6225160445       -2.3903458055       28.7767113031
  N         6.1830595174       -1.9715763399       30.2274967205
  C         5.6643457036        0.1522607705       31.4324111346
  H         5.4680477029        2.2241744191       32.1732853289
  H         7.8919832595        0.9111827687       20.7858950545
  H         8.4927505343        1.1783733303       19.1170871726
  C         6.8115738910        2.3857258475       19.5836391696
  H        10.9382162863        1.3615501381       19.8874021639
  H        10.4571573607        1.0364172467       21.4975480792
  C        11.7660403733        2.7468498553       21.0578200708
  H         9.7189815666        3.6504230944       17.8689547154
  C        10.2694269314        6.4134799516       17.2511611145
  H         1.3105832750        4.1733103902       28.7583400070
  H         0.5362405526        5.5731281065       27.9195321290
  C         1.5741678647        6.0831213793       29.6755270941
  C         5.3905617402       -0.6542503928       32.6304655633
  H         6.9082825879        2.9929539672       18.7430493345
  H         6.4376415832        2.9976826970       20.4160503368
  C         5.7080091202        1.4103308281       19.2239401731
  H        11.5180751315        3.5249565140       21.7919726304
  H        12.1240982150        3.2440176863       20.1284165369
  C        12.9016734537        1.9515238690       21.4149448382
  C        10.4032531188        7.8094688763       17.0104226149
  C        10.3641273182        5.6106580878       16.0001400036
  H         1.6309599852        7.1415432614       29.4696796497
  H         0.6896304592        5.9556322444       30.2605623272
  C         2.7619626301        5.8018915857       30.5198933822
  H         5.4606013512       -1.7203612585       32.4460436348
  C         5.1653594957       -0.2965490279       33.9570411398
  H         5.5831544980        0.8040520239       20.1652360335
  H         6.1194111957        0.6577069669       18.5145291535
  C         4.3005538677        1.8422829770       18.7909645522
  H        12.5623465694        1.1541170345       22.1194610611
  H        13.3113451305        1.4698653400       20.5025568267
  C        14.0672945126        2.8211380912       22.0630309115
  N        10.2893171589        8.7980202751       17.9641892516
  C        10.8317977647        8.3677194310       15.8213573833
  C        10.8479562350        6.1957989186       14.8044949089
  H        10.1793729032        4.6222707088       15.8986670090
  H         2.6816062813        4.8066013597       31.0152450300
  H         3.7089996490        5.8136926921       30.0325913094
  H         2.9633110706        6.5416690074       31.3321589120
  S         4.8768301219        1.3107062713       34.4927633560
  C         5.2663887689       -1.4017798711       34.9679363065
  H         3.8293801068        2.1311449788       19.7217488027
  H         4.3190027180        2.6741441740       18.0922358943
  C         3.4604307580        0.8358033439       18.0780520061
  H        13.6531936337        3.5962689707       22.6150379364
  H        14.5662195536        3.3267383618       21.1610166704
  C        15.0646035077        1.8820919793       22.7756516261
  S        10.3539188686       10.2164034272       17.2636816455
  N        10.8437557601        9.7816513377       15.8440315958
  C        11.1582675848        7.6300012221       14.6804042944
  H        11.0089028458        5.4966938694       13.9979701550
  C         4.6266907126        0.4307152338       36.0780731821
  N         4.9745685466       -0.8301313527       36.1897318443
  O         5.4530715746       -2.5795918068       34.7077340547
  H         4.0162584495        0.2630713243       17.3453187028
  H         2.7715865219        1.3797854234       17.4177999736
  C         2.7819832280       -0.1169923061       19.0822932703
  H        14.4623159347        1.3872492000       23.4786048872
  H        15.4832455690        1.2599974709       22.0112938745
  C        16.0331187505        2.7120227037       23.6167469167
  C        11.5553794758        8.3266685120       13.5285113116
  S         3.7986540313        1.0382737117       37.5301905995
  C         5.0363700923       -1.5850011332       37.4011196189
  H         3.4473956614       -0.5306856884       19.7706165094
  H         2.1330550443        0.4963721634       19.6296081200
  C         1.9591342769       -1.2161742149       18.4235253793
  H        15.4667670464        3.1632230436       24.3686046760
  H        16.3751909253        3.6369302662       23.1087563958
  C        17.2853869040        1.9532340296       24.0835014221
  H        11.2772351152        9.3718095447       13.6448662275
  C        12.0164891193        7.8943042808       12.3151526538
  H         4.8772222908       -1.0163352107       38.3075743406
  H         4.2177390163       -2.2573794403       37.4892870593
  C         6.5187253517       -1.9958903616       37.5800888834
  H         1.2183459369       -0.8243998794       17.7203135720
  H         1.4564823845       -1.7886669178       19.2320003850
  C         2.7291495285       -2.2493958944       17.6667389601
  H        17.7405985263        2.6112718747       24.8368754544
  H        16.9473774757        1.0428093314       24.6344424326
  C        18.2264195742        1.7123623234       23.0175892071
  S        12.3232638670        6.2171824066       11.8259205855
  C        12.1386620740        8.8863822492       11.2401095237
  H         7.1795996939       -1.1153674704       37.4790523117
  H         6.5880872363       -2.3225202624       38.6265713135
  H         6.9642462072       -2.6961140462       36.8384271952
  H         2.0657099017       -3.0175806483       17.3850118230
  H         3.6113143250       -2.6056286712       18.2154864499
  H         3.1274379493       -1.8013251515       16.8212231780
  H        19.1840152542        1.4534215655       23.4223747667
  H        18.3806215072        2.5957319177       22.4392430081
  H        17.9175059373        1.0016076040       22.2377570646
  C        12.5651554736        6.9209718900       10.1806629801
  N        12.5695035569        8.2540511878       10.1223911432
  O        12.0116291769       10.0536297787       11.4151027874
  S        13.2551528543        6.0793036577        8.7535753742
  C        12.6560243590        9.1238658404        8.8781004338
  H        13.2719670001        9.9481548076        9.2512439889
  H        13.2201750668        8.8130918535        8.0513262066
  C        11.2667329763        9.4444205403        8.2155612307
  H        11.1991313241        9.0391647507        7.2204669167
  H        10.3745577752        9.0028590455        8.7558499702
  H        11.1788478982       10.5147192014        8.1765516291
  H        -3.7741485808       13.1992440371       16.3622219113
  C        -2.6708855456       13.3772964028       16.3262178255
  H        -2.1428584845       12.4153282784       16.3715453789
  C        -2.2261560996       14.2547716455       17.4570619582
  C        -2.3885899381       13.8735641527       14.9248673404
  C        -2.6921339899       13.8974458385       18.9279436233
  H        -1.1115015407       14.4502908335       17.3046836331
  H        -2.8574997013       15.0457513852       17.2126682944
  H        -2.8913807052       14.8623050165       14.7324646356
  H        -1.3396763734       14.0205372797       14.7944016739
  H        -2.9143067704       13.2786528511       14.1888207847
  C        -1.5706515890       13.8938307190       19.9341635295
  H        -3.1253603812       12.9049387666       18.8971258802
  H        -3.4568339597       14.5745710269       19.2379775448
  C        -2.0272063145       13.6259795767       21.3451364916
  H        -0.7002568638       13.2191177924       19.6720757032
  H        -1.0915935632       14.8579812355       19.8987233408
  C        -0.8671181227       13.0406923143       22.1709044505
  H        -2.8060995205       12.9525783560       21.4640165395
  H        -2.3462975911       14.5524902943       21.8654068790
  C         0.3618716527       13.9468587028       22.4753784905
  H        -1.2082162782       12.6689634547       23.1811914454
  H        -0.5178493474       12.1791832160       21.5870658702
  C         1.5291622121       13.2868472870       23.1472511570
  H         0.7268145694       14.2927087697       21.4816349674
  H        -0.0119681469       14.7913136245       23.0253857729
  C         1.9048301788       11.9144934253       22.5241444668
  C         1.1478351766       12.5896573429       24.4338930158
  C         2.8154190203       14.2380138136       23.1983773856
  C         1.7336596721       10.8064981553       23.3651507036
  C         2.3768076108       11.5490280883       21.2982210471
  C         1.2579885315       11.2254330579       24.5860531021
  C         0.7056426244       13.2747900526       25.5744075604
  H         3.2772402991       14.2890719288       22.2000412704
  H         2.6423061340       15.2477384456       23.4681340088
  C         3.9448419420       13.6636340124       24.0746548881
  S         2.0906723220        9.3210076658       22.5323639758
  C         2.5251174694       10.1691994394       21.1336102750
  H         2.6018992950       12.3736401855       20.6126295138
  C         0.9222834195       10.6637869983       25.7648805371
  H         0.5178158761       14.2689111858       25.5694157252
  C         0.3566765622       12.6863486892       26.8018316808
  H         4.2088847850       12.5886405750       23.9008697235
  H         3.5820798795       13.7396328204       25.1324963368
  C         5.2148831932       14.5368844993       23.9827143278
  C         2.8564137736        9.3855054853       19.8711001617
  C         0.5109745519       11.3365463014       26.9305570922
  H         0.9756092144        9.5815401445       25.7795439489
  C        -0.0934886033       13.0654968432       28.0226642524
  H         5.7090792916       14.7172772020       24.9781840374
  H         4.8117733671       15.4737228570       23.7680726118
  C         6.2575363914       14.3121589167       22.8761988517
  C         2.9367333056        7.9570434701       19.6793573785
  C         3.4188864209       10.1505254029       18.6885425708
  C         0.0319582975       10.5155378728       28.1623806603
  C        -0.3605580491       11.8764095972       28.8090752739
  S        -0.4756269255       14.5347682166       28.7246887364
  H         7.2028045313       14.7057182440       23.2357007817
  H         6.0774852921       14.9985779042       22.0659610054
  C         6.5669614169       12.9403095848       22.3222779826
  N         2.7489616160        6.9315890892       20.6824625954
  C         3.1242273786        7.3621028395       18.4419939607
  C         3.4420531795        9.5582822057       17.4102378177
  H         3.6645624075       11.2433951219       18.6957982868
  C         1.1073127083        9.7582453104       29.0184644530
  C        -1.2198420417        9.5791602729       27.8295101060
  C        -1.0052272480       12.2835596586       29.9527399392
  C        -1.0417655480       13.6803299956       30.0382195684
  H         7.5455741839       12.6573046695       22.6460992544
  H         5.9314366984       12.1873970270       22.7504867570
  C         6.4513158163       12.8794012656       20.8120136627
  S         2.4990034905        5.4951234911       19.9754712105
  N         2.8367647424        5.9854948572       18.4642217860
  C         3.3029435872        8.0914402385       17.2242021681
  H         3.7478187172       10.1208350250       16.5614782121
  H         1.3778629125        9.0890015761       28.2976620354
  H         0.5560655057        9.2789905296       29.8255511176
  C         2.3069563615       10.6102239164       29.5182525464
  H        -0.9542983063        8.8340285625       27.0296234635
  H        -1.5931499646        8.9722821798       28.7019100763
  C        -2.4091550628       10.3463853120       27.2907733661
  H        -1.2351669629       11.5876347694       30.7181298959
  C        -1.3099044229       14.3238876346       31.3650295785
  H         5.7157041251       13.6116808322       20.4647645145
  H         6.0306992539       11.9262283599       20.4573008206
  C         7.8139306051       13.0353070378       20.0755477351
  C         3.4908855624        7.3463650805       16.0016845938
  H         2.7165211811       11.2180446160       28.6950225371
  H         1.9860974736       11.3501034009       30.2101344169
  C         3.3874406565        9.8574454766       30.2583327791
  H        -2.1858596398       10.8418376020       26.4125077958
  H        -2.7512822387       11.2167761023       27.8745174958
  C        -3.6185846749        9.5053287554       27.1638641336
  C        -1.3111742464       15.7006988787       31.6256731456
  C        -1.6214304494       13.4591496462       32.5586243147
  H         8.1824217213       14.0164086036       20.3418058958
  H         8.6095609763       12.3700165638       20.4348367676
  C         7.7516379858       13.0434519709       18.5495875126
  H         3.4557513319        6.2896504915       16.1830286070
  C         3.8256596067        7.6917532533       14.7070955368
  H         3.6722152841        8.9903514882       29.6845220862
  H         2.8707658652        9.3777262149       31.0600430912
  C         4.6479333314       10.6623300030       30.5285251699
  H        -3.4070820139        8.7041849582       26.4187824338
  H        -3.6780173274        9.0769672362       28.1382750505
  C        -4.8401369735       10.3140513987       26.9410030017
  N        -1.0794735738       16.6944504573       30.6718824596
  C        -1.6209320396       16.2198027803       32.8133317138
  C        -1.8698800629       13.9926640504       33.7933666501
  H        -1.7787736750       12.4241742293       32.4838553306
  H         6.7866960811       13.1656473072       18.1798320265
  H         8.2061547451       13.8835404184       18.1034205427
  H         8.0086474132       12.0988217076       18.0838538179
  S         4.2858763949        9.2102887774       14.0985299829
  C         4.0100544443        6.5638418780       13.7342898665
  H         4.9670960990       11.2799418652       29.6515724580
  H         4.4326645396       11.3839714598       31.2382482504
  C         5.8525322434        9.9910401291       31.1408662375
  H        -4.7687349715       11.0233988334       26.1106861128
  H        -5.0044280047       10.9606108394       27.7757039644
  C        -6.1651406265        9.5303469407       26.6463425259
  S        -0.9897818315       18.1813871739       31.3808218119
  N        -1.4814766351       17.5963222631       32.8326503885
  C        -1.9286043250       15.4585557941       33.9999152199
  H        -2.0665235503       13.2315965107       34.5693075836
  C         4.6033538907        8.3734429020       12.5574596694
  N         4.5068440502        7.0762642574       12.5700593487
  O         3.6615988952        5.3915764812       13.9154986994
  H         5.5799552035        9.2324534944       31.8908717804
  H         6.3322388730       10.7390234440       31.7408365362
  C         6.8895415475        9.4622472232       30.2111216984
  H        -6.1184459912        9.0386768809       25.6577422054
  H        -6.1860042198        8.8439851877       27.5573356675
  C        -7.2306274672       10.6310808578       26.8024251319
  C        -2.1053767736       16.1054585929       35.2286283995
  S         5.1545447226        9.1121668899       11.0740233835
  C         4.5647665187        6.2830996966       11.4082870844
  H         7.0607513842       10.3053237025       29.5149095053
  H         7.7623324073        9.3457378064       30.7809195536
  C         6.5457474279        8.1390051764       29.5602118523
  H        -6.9690801305       11.5165545473       26.2322060937
  H        -7.1126637145       10.9216586684       27.8091124209
  C        -8.5901122909        9.9666870836       26.5304763980
  H        -1.7972518764       17.1365481650       35.2734987930
  C        -2.6661899093       15.5897447837       36.3974121068
  H         5.2746204800        6.6998674630       10.7062336890
  H         4.8117192947        5.2519412308       11.6494775466
  C         3.0944794536        6.2218275394       10.8577338883
  H         7.1167753383        8.0659454608       28.6161948997
  H         5.4121943679        7.9374421513       29.4219331374
  C         6.9724754707        6.9014128724       30.2977427702
  H        -8.8704725223        9.2962456042       27.3434068779
  H        -9.3116893586       10.8031564979       26.6265963413
  C        -8.7232899494        9.4562731591       25.0632593856
  S        -3.2509026407       13.9168105751       36.7016561521
  C        -2.7081799442       16.5239295055       37.5692355124
  H         2.5191911416        7.0856248196       11.0631734834
  H         3.1114330349        6.1515089162        9.7801359054
  H         2.6078462569        5.2974834762       11.1664862973
  H         8.0295539129        6.9142827301       30.6190767716
  H         6.7498341198        6.0531417244       29.6068061012
  H         6.3655689235        6.8140421053       31.2030431138
  H        -8.1575000079        8.4725846831       24.9022022178
  H        -8.3075809225       10.1770335686       24.3518198126
  H        -9.7601136773        9.2739693639       24.7606195529
  C        -3.7539221853       14.6707786624       38.2774712639
  N        -3.4875024182       15.9713564847       38.5004911649
  O        -2.4904673301       17.7262890808       37.4682400180
  S        -4.7769167154       13.8875567070       39.4245629529
  C        -3.8202049454       16.7094144335       39.6664724645
  H        -4.0581360347       17.7575576260       39.5321937648
  H        -4.6819922900       16.4223857175       40.2118375921
  C        -2.6584497337       16.6727687191       40.6812419577
  H        -1.6489790231       16.4329418651       40.3832977346
  H        -2.6132060108       17.6790020868       41.0990812655
  H        -2.8179343361       16.0551412561       41.5780039201
