352
 i =    14600, time =    14600.000, E =        24.5386583261
  H        12.1129656125        7.0639545804       32.1983875201
  C        11.8719480385        5.9583211836       32.1574151108
  H        12.8614944456        5.4400924168       31.9998853496
  C        10.8336149870        5.6297760259       31.0698106468
  C        11.4914556539        5.5627524427       33.6197479955
  C        11.2021572567        6.0709153446       29.6738919903
  H        10.5927957347        4.5630366236       31.1203210166
  H         9.8867972355        6.0497822315       31.3596801776
  H        11.8658441775        4.6625851034       34.0957593211
  H        11.6523195386        6.4163060678       34.2704341637
  H        10.3977963101        5.4891693736       33.7435358631
  C         9.9354973883        6.1306625906       28.7564466573
  H        11.9224621790        5.3997185305       29.2074917700
  H        11.6636109508        7.0959448583       29.6422206525
  C        10.3194054801        5.7385827064       27.3098018641
  H         9.1039227170        5.5145852611       29.1091401816
  H         9.4371339419        7.0980020879       28.9561560109
  C         9.2479999259        4.8256074670       26.7154688612
  H        11.2525707583        5.1666297890       27.2458186021
  H        10.6121472547        6.6127065488       26.7777566595
  C         8.1487845584        5.7736398268       26.2407964187
  H         9.7141564317        4.1732594447       25.9762342439
  H         8.8058365700        4.2009212687       27.4927047516
  C         6.9575407144        5.0367300080       25.5906787576
  H         7.7795881791        6.3390538048       27.1418068741
  H         8.3416648694        6.5922944984       25.5616136795
  C         6.7153031409        3.6717593219       26.2481202428
  C         7.4198004950        4.2731866126       24.3815108320
  C         5.7714569525        5.9623561750       25.3751206441
  C         7.1843305403        2.5505352329       25.5437727908
  C         6.1845441914        3.2584996306       27.5147758757
  C         7.5724704623        2.9331968013       24.2987859172
  C         7.8684791554        4.9171265628       23.2280750259
  H         6.1018282367        6.8502118582       24.8761102861
  H         5.5105660434        6.2726497569       26.3334322481
  C         4.5981153082        5.2732461639       24.6120535269
  S         7.0438082113        1.0662299809       26.4422763214
  C         6.2600553035        1.9197014824       27.7620829053
  H         5.6686703102        3.9694207194       28.1506931559
  C         8.0348913704        2.3092362984       23.1208565806
  H         7.6926437153        5.9637904441       23.2851869289
  C         8.3235161391        4.2987108715       22.0687694371
  H         4.9471457022        5.1203669509       23.6465910658
  H         4.2306971445        4.2688054177       24.9138097391
  C         3.3224212295        6.0857348591       24.6946445030
  C         5.9354060956        1.2707881397       29.0348567771
  C         8.4104595499        2.9927315576       21.9725837152
  H         8.1736356942        1.2134553080       23.1955009780
  C         8.8293422921        4.7346041951       20.8691912252
  H         2.5925898110        5.6183156342       24.0138949673
  H         3.5173522409        7.0794482715       24.3845135108
  C         2.6276302941        6.2945397702       26.0507435778
  C         5.8643110386       -0.1059145345       29.3256348448
  C         5.5037657278        2.1406106700       30.1809492172
  C         8.9867464630        2.3644464003       20.7587487822
  C         9.2034957262        3.7126864234       20.0746411487
  S         9.1748795934        6.2635766039       20.2374029970
  H         1.9222776145        7.0655992052       25.8617624325
  H         3.4503192729        6.5949395290       26.7103838716
  C         1.9907024392        4.9357534051       26.5771268477
  N         6.2960669561       -1.1360132298       28.4257021228
  C         5.5280600674       -0.5827249872       30.6227975928
  C         5.0350264231        1.6301929453       31.3525893306
  H         5.5352603753        3.1923479027       30.0851485093
  C         7.9555013377        1.4914118328       19.9353030479
  C        10.3183389884        1.6203876326       20.9051401563
  C         9.6118530545        4.1449633675       18.7952074106
  C         9.6313309901        5.5271901440       18.7162177414
  H         1.1393791376        4.6399371601       25.9205345827
  H         2.7990671627        4.2087342726       26.4585494828
  C         1.5443528014        5.1115224978       28.1024252759
  S         6.2633185820       -2.4556255762       29.2740359596
  N         5.5019656317       -1.9805663311       30.6699874900
  C         5.1249109517        0.2076329302       31.6921142651
  H         4.5323553912        2.1938304435       32.0730537583
  H         7.6760552670        0.8636241163       20.7479252144
  H         8.3858511521        0.8630667889       19.1450843747
  C         6.7374807525        2.3648921013       19.4701874341
  H        10.5473202261        1.3167943547       19.8950488152
  H        10.1964535815        0.6883518718       21.4496975770
  C        11.5277758995        2.4028287690       21.5284272618
  H         9.8463177876        3.4051551564       17.9959134575
  C        10.0104078782        6.2290027203       17.4561108529
  H         0.8674725502        4.2814823469       28.3870224098
  H         1.1188502805        6.0959043889       28.2153272680
  C         2.7338591647        5.2795175699       29.1160556259
  C         4.8741228170       -0.3110197313       32.9923514744
  H         7.0793286681        3.2000778795       18.7909894088
  H         6.2169821498        2.8939484009       20.3029378605
  C         5.7286123733        1.3917994232       18.8494255409
  H        11.4024338619        2.4374865969       22.6153031100
  H        11.7121110847        3.4277828262       21.1154516993
  C        12.8177945573        1.5526606834       21.2614347777
  C        10.0332562569        7.6426613849       17.3150748981
  C        10.2512818801        5.4071264228       16.2445161200
  H         3.3513521870        4.3967346344       29.2079052267
  H         3.4710411462        6.0948076366       28.7969406132
  C         2.2090921095        5.5587877011       30.5221774358
  H         5.0866132229       -1.3404557078       33.0935296096
  C         4.6916448326        0.2209237770       34.2407995887
  H         5.5904248095        0.4409134841       19.4167744386
  H         6.0877295151        1.0584053919       17.8288676151
  C         4.3908689449        2.1309361002       18.5274797581
  H        13.0106208199        0.9595622159       22.1293586662
  H        12.6235489685        0.8283166947       20.4603457016
  C        14.0095793196        2.4040220616       20.9029802699
  N         9.7323024794        8.5305202445       18.3433661153
  C        10.3453702460        8.2258893453       16.1370025012
  C        10.4759869612        6.0127406384       15.0464899293
  H        10.1387865808        4.3402146587       16.2676369468
  H         1.3655714691        6.2634375804       30.5248839622
  H         1.7680052748        4.6267121317       30.9014449396
  H         3.0200724610        5.9038241352       31.1535491628
  S         4.4588509414        1.8556601922       34.6916873769
  C         4.5143174626       -0.7642880743       35.3422001805
  H         4.3087784161        3.0121326724       19.2055538100
  H         4.6679089240        2.4878922394       17.5712834889
  C         3.0848181446        1.2406692353       18.6390546698
  H        13.6886634623        3.2602418060       20.2897751297
  H        14.7258500359        1.8536123787       20.2790977000
  C        14.7766799038        2.9569261195       22.1901537044
  S         9.8449812099       10.0417157653       17.7645940485
  N        10.2448514344        9.6785914775       16.2052249555
  C        10.6094219452        7.5082124847       14.9569776876
  H        10.5626238482        5.3533843808       14.2413618957
  C         4.2158545643        1.2706590747       36.3489530938
  N         4.2984448167       -0.0664931754       36.5076197178
  O         4.5686890844       -2.0029723766       35.3246794307
  H         2.2188752351        1.9246681429       18.4395848746
  H         2.8113510425        0.7953379126       19.6014046557
  C         3.0674122125        0.1773920604       17.5320755235
  H        15.5421552291        3.6333865825       21.9304422763
  H        14.1246107881        3.5868416622       22.8217759903
  C        15.4140619629        1.7402095557       23.0093686161
  C        10.8083511312        8.2577811718       13.8042557717
  S         3.8205125830        2.3701610508       37.7072055739
  C         4.2087200393       -0.7583397487       37.7256271836
  H         2.8808610776        0.5705660084       16.5842018846
  H         3.9702645895       -0.4631384308       17.5391387914
  C         1.8951231260       -0.8065936103       17.9152681649
  H        15.2960922167        0.8198511565       22.4684505863
  H        14.7444037383        1.6154976525       23.8398567194
  C        16.8362680408        1.8686023377       23.5413506387
  H        10.4170099948        9.2222919396       13.9281362121
  C        11.3665123536        7.9356129515       12.6221923722
  H         3.6696747373       -0.2392283040       38.5232512712
  H         3.5578342079       -1.6711068197       37.5703092267
  C         5.6493156156       -1.0106674840       38.3118938705
  H         1.0829019719       -0.2533669420       18.2070795235
  H         2.2241502496       -1.4104154006       18.7744391835
  C         1.4240469177       -1.7573299546       16.8021938346
  H        16.9143731064        2.7307980372       24.2060526241
  H        17.0462739873        1.0264306495       24.1040858822
  C        17.8206054436        1.9252070127       22.3431513857
  S        11.9840743550        6.3611609144       12.1632417313
  C        11.3769980035        9.0079796726       11.5618069413
  H         5.5610686077       -1.5691443501       39.2787171662
  H         6.3038545707       -1.7448492253       37.7837453534
  H         6.2321365380       -0.0769333743       38.3283094857
  H         0.3920102433       -1.5623040203       16.4993394274
  H         1.5792511383       -2.8057853620       17.0151128992
  H         1.9475235507       -1.5187657228       15.9303629248
  H        18.8891873004        1.9754355384       22.6122624700
  H        17.5678869493        2.7705029070       21.7848021838
  H        17.5566446582        1.1556599012       21.5886698393
  C        12.4146369140        7.2366443703       10.6655943969
  N        12.0446079448        8.5321339909       10.5199514921
  O        11.0627542015       10.1986510146       11.7444029599
  S        12.9504807983        6.4111947454        9.2154656039
  C        12.1990192977        9.3892547100        9.3239766542
  H        12.1962897588       10.4098387707        9.6365829038
  H        13.2322945346        9.1867693882        9.0048636138
  C        11.2373126214        9.1680727685        8.1953058275
  H        10.2650528039        8.9683982923        8.5497107146
  H        11.2293015894       10.0835363344        7.6034026941
  H        11.4788380663        8.3577048700        7.5373035462
  H        -2.5978810255       14.9227383640       16.4851117806
  C        -3.0373296073       13.9411234767       16.5787901887
  H        -4.1074425190       13.9056381265       16.7582845780
  C        -2.2809562204       13.4950098947       17.7593143401
  C        -2.6749137631       13.0310417178       15.3657702009
  C        -2.7649102595       13.9918703997       19.1183783881
  H        -1.9586847623       12.4447375691       17.7204543236
  H        -1.3669242095       13.9835473666       17.7524086168
  H        -2.7245815459       13.6243759504       14.3995285724
  H        -1.6625371271       12.6658471784       15.6198345086
  H        -3.3777136550       12.2390795459       15.2220819873
  C        -1.7312956673       13.7182461651       20.1680500246
  H        -3.7581993523       13.6994732823       19.3992023026
  H        -2.7108283239       15.0202371757       19.1791430284
  C        -2.2918934687       13.6060855953       21.5614224710
  H        -1.2257646789       12.7389677840       19.9477785699
  H        -0.8551414782       14.3579696069       20.0602127510
  C        -1.2924406530       12.9382132683       22.5440199186
  H        -3.2327965497       13.0231562321       21.4786982552
  H        -2.5308595176       14.6572904668       21.9305937768
  C         0.0633499420       13.7582645407       22.7959943816
  H        -1.8219417364       12.7821801779       23.4924167902
  H        -1.1256411431       11.9097389354       22.2044884749
  C         1.1506812850       12.9265290680       23.4768984870
  H         0.4008361961       13.9664810838       21.8012388242
  H        -0.1021446608       14.5893080502       23.3883758793
  C         1.4446118499       11.5756411470       22.7692074781
  C         0.7179870219       12.1987577384       24.6917830383
  C         2.4123279141       13.7853962696       23.7542187876
  C         1.1911944310       10.5000244686       23.5601946825
  C         1.8242863904       11.2519882542       21.4932037522
  C         0.6533616288       10.8607513840       24.7550240343
  C         0.3277361027       12.8887406906       25.8343131544
  H         2.6958155828       14.2163210854       22.8242697619
  H         2.1877351329       14.7175288930       24.3586509636
  C         3.7188288251       13.0935248478       24.0952237117
  S         1.5334032296        9.0434834816       22.6902915377
  C         2.0545861587        9.8688862536       21.2916147380
  H         1.9904498253       12.0950473079       20.8438701091
  C         0.1950392094       10.2525009765       25.9357210278
  H         0.1676121558       13.9021560757       25.7554163337
  C        -0.1003459078       12.2744611966       27.0061241216
  H         3.9685732772       12.3283622338       23.3243446856
  H         3.6091802661       12.4873862686       24.9795521260
  C         4.9340292200       14.0044995595       24.4675451335
  C         2.4983387986        9.2052686603       20.0179291978
  C        -0.2427521598       10.9878094515       27.0657681862
  H         0.1527658048        9.1434627721       26.1120943021
  C        -0.5375894717       12.6945192675       28.2018887886
  H         5.6021844309       13.5410207910       25.2704585578
  H         4.4632518869       14.8755950877       24.9223023032
  C         5.8484052429       14.3369849095       23.2361847736
  C         2.5587681815        7.7719365050       19.8199829956
  C         2.9176792215       10.0868359732       18.9001158813
  C        -0.7589648289       10.2237895549       28.2348371587
  C        -0.9466051750       11.5877821784       28.9550718752
  S        -0.8052520863       14.1812857562       29.0527514597
  H         6.5165922150       15.1085201481       23.6865719932
  H         5.2824961208       14.9056039326       22.4896497054
  C         6.7313333688       13.1739894331       22.7453804567
  N         2.1931194455        6.8188280434       20.7976573844
  C         2.9171307472        7.2045384314       18.5989829985
  C         3.3246549921        9.4876664290       17.7040515866
  H         2.9030798361       11.2110255143       18.9295492840
  C         0.3058682861        9.4106936616       29.0712268770
  C        -2.0517677582        9.3408023874       28.0688282701
  C        -1.3479622509       11.9468834212       30.2813731348
  C        -1.2371349226       13.2674536183       30.4777792220
  H         7.5801080955       13.0321479515       23.4643295597
  H         6.1851133538       12.2898736824       22.8798389046
  C         7.1782331891       13.3267818559       21.2609249233
  S         2.2233116965        5.3436081816       20.0850615171
  N         2.9583819326        5.7652476574       18.7206552162
  C         3.3270481167        7.9794624232       17.5513335857
  H         3.6069583271       10.0596982244       16.8989032634
  H         0.8585821532        8.6967326702       28.3785553697
  H        -0.2153100296        8.7620548413       29.7962273272
  C         1.4600655975       10.1191440817       29.6700077512
  H        -1.9557484072        8.4862117225       27.4321527305
  H        -2.3261343105        9.0566882929       29.0854278030
  C        -3.1915418534       10.2049020685       27.4263642695
  H        -1.6076490286       11.1421526813       31.0324836817
  C        -1.5377432066       14.0337803238       31.7734536105
  H         7.9117723687       12.5383506639       21.0962581881
  H         7.6785347246       14.2724051176       21.2021487788
  C         6.1346747480       13.1849041843       20.1812435709
  C         3.7123555370        7.3405879041       16.3384935517
  H         1.8840277500       10.7150805323       28.9137170465
  H         1.0296446682       10.6306103965       30.5449814343
  C         2.5276686918        9.1414621693       30.0842829370
  H        -3.0883929383       10.3091825940       26.3675862084
  H        -3.2923807019       11.1345612728       27.9028347748
  C        -4.5640753938        9.4047137719       27.7027553804
  C        -1.5858372079       15.4264478410       31.9999755469
  C        -1.8279412846       13.2389892822       32.9923102538
  H         5.8879909112       12.1177080995       19.9206528011
  H         5.1555926866       13.6246417669       20.4472911740
  C         6.5817340048       13.7573089381       18.8633470585
  H         3.7087000962        6.2689998078       16.3367863557
  C         3.8846230567        7.8075105542       15.1025028817
  H         2.7580408388        8.3541747132       29.4113171697
  H         2.0927024179        8.6668918982       30.9404971020
  C         3.6927041164        9.9329170228       30.6460835001
  H        -4.5767606204        8.5789104984       27.0271646002
  H        -4.7259708702        8.9755286656       28.7119702108
  C        -5.8407025109       10.2763524125       27.5605761361
  N        -1.5636535511       16.3532841414       30.9015759156
  C        -1.9363096254       16.0228988604       33.1779078280
  C        -2.0860967428       13.8433031662       34.1841752272
  H        -1.6873260080       12.1131402038       32.9412802032
  H         5.5875373339       14.0753124875       18.4090377621
  H         7.1658922874       14.6471090234       19.0732190059
  H         7.0833831403       13.0899393483       18.2214907237
  S         3.9255011316        9.4709287888       14.5348869712
  C         4.0728598447        6.7915449081       14.0217732500
  H         3.7184688056       10.9406733486       30.1327878710
  H         3.5394731891       10.1042102461       31.7398656851
  C         5.0337775640        9.0905716434       30.5537539406
  H        -5.3658696144       11.1412383833       26.9955335850
  H        -6.2449654802       10.6110765732       28.4776435079
  C        -6.8991642089        9.4724951178       26.7513338561
  S        -1.6128913322       17.8784728200       31.4701614607
  N        -2.0739967670       17.4223521106       32.9577152944
  C        -2.2474491685       15.2967790131       34.3165674413
  H        -2.2211088911       13.1936549608       35.0873816516
  C         4.2258500073        8.8058842266       12.9565823558
  N         4.3984700356        7.4557763188       12.8670173847
  O         4.2597137973        5.5547404024       14.2060058642
  H         5.9045472301        9.7592051629       30.5008627181
  H         4.9963345118        8.6181585821       29.5793512057
  C         5.3199806427        8.0842047405       31.6162096332
  H        -6.5543340068        9.2846763233       25.7515555146
  H        -7.1223688569        8.4780133390       27.1262708255
  C        -8.1847412424       10.3117731972       26.6748864684
  C        -2.4940396392       16.0608242209       35.5099058254
  S         4.5137396326        9.7539233954       11.5439542901
  C         4.3303981701        6.8173955675       11.5438547472
  H         5.7341923007        8.5329785648       32.5139515771
  H         4.3340580723        7.7122787596       31.9416786050
  C         6.2735126347        7.0628531044       31.0530276873
  H        -7.9810380296       11.2467258534       26.2482930400
  H        -8.5063136765       10.6272392727       27.6913789742
  C        -9.2643359232        9.6781691517       25.8600321622
  H        -2.3277852283       17.1228925141       35.3943456935
  C        -3.1202735190       15.8563472080       36.6194621500
  H         4.8783672116        7.4304980768       10.7662563807
  H         4.7506160523        5.8365285540       11.5485894495
  C         2.7997035017        6.6522162898       11.1109926455
  H         7.2355001225        7.4837186461       30.7771048255
  H         5.8020915155        6.6282857567       30.1291529030
  C         6.5284056318        5.9450361660       32.1245227787
  H        -9.3072404977        8.5813141010       26.1660872299
  H       -10.2392789654       10.1089662836       26.0638527552
  C        -8.8714307584        9.7600744550       24.3538355692
  S        -3.7576466251       14.3647220590       37.2883414269
  C        -3.1483508028       16.9966188892       37.5647334150
  H         2.7488195689        5.7909309050       10.3925254952
  H         2.2584466403        6.2765349405       11.9278989494
  H         2.2204058449        7.4025948670       10.7144527428
  H         7.5703290557        6.0377997928       32.4513084286
  H         6.4847433149        4.9419999742       31.8558077152
  H         5.7822162920        6.0672917792       32.9409181760
  H        -7.9233312500        9.2943201969       24.2089810324
  H        -8.7133165810       10.7917399848       24.0063355143
  H        -9.6109120337        9.3815365233       23.7252166825
  C        -4.1052452275       15.2440380038       38.7413231464
  N        -3.8170544514       16.5825805800       38.6699453529
  O        -2.6782336601       18.1193666123       37.3283171356
  S        -4.9705005523       14.6289044678       40.1326137464
  C        -4.0476203066       17.5019727007       39.7150308232
  H        -4.1506177682       18.4896251861       39.3269054992
  H        -5.0329940063       17.2704998671       40.2358586203
  C        -2.9467275088       17.3901818369       40.7968486393
  H        -2.6514333051       18.3343504778       41.1989552643
  H        -3.2668995350       16.7005641327       41.5859041917
  H        -2.0198659575       16.9911896982       40.3473345653
