352
 i =    19200, time =    19200.000, E =        25.3967008503
  H        11.6716082096        7.3638492264       31.8388454888
  C        11.1823644800        6.3627353960       31.8560698233
  H        11.8806695112        5.7461067272       31.2452741507
  C         9.8507289345        6.4141358835       31.1404904076
  C        10.9988649818        5.8148564879       33.2729511314
  C         9.9864645152        6.7000538494       29.6490631105
  H         9.2368947698        5.5294027817       31.2074947558
  H         9.3223325036        7.3002134166       31.5403027624
  H        10.6109565947        6.5701645135       33.9457628919
  H        10.3316506882        4.9825398458       33.1962830032
  H        11.9860661070        5.4248647688       33.6493031424
  C        10.2855976305        5.5020481738       28.7512170615
  H        10.7918244575        7.4913353282       29.6005092837
  H         8.9979174601        7.1802883521       29.5466127263
  C        10.6702793794        5.9613507547       27.3702991972
  H        11.1060831906        4.8559384722       29.2408572455
  H         9.3951507259        4.8448553172       28.7342690997
  C         9.7783606458        5.3929711941       26.2884476384
  H        11.6604256287        5.6687842485       27.1377432235
  H        10.6068018945        7.0819150706       27.3823166591
  C         8.4974062310        6.2595177527       26.1481412209
  H        10.2237287873        5.3574940797       25.3140300345
  H         9.5983977587        4.3954955526       26.5624324021
  C         7.4351247567        5.4213612973       25.4522223838
  H         8.1406403338        6.7210284362       27.0697373823
  H         8.7188578112        7.1570348371       25.5505823199
  C         7.0670871135        4.0593161216       26.1046469726
  C         7.7988066455        4.6748779982       24.1835764813
  C         6.1741703329        6.3043156316       25.3016986725
  C         7.3438960793        2.9074212904       25.3017873377
  C         6.5068348312        3.6627957941       27.3607071132
  C         7.8513724586        3.3126046111       24.1079934810
  C         8.2404489190        5.3850628259       23.0763652127
  H         6.4292745370        7.2685313254       24.7661160516
  H         5.8885634111        6.5671862396       26.3534002753
  C         4.9433597673        5.5555217041       24.7344882096
  S         6.8688997289        1.3955198973       26.0336355149
  C         6.3545767494        2.3043526057       27.4702311333
  H         6.1506784951        4.4216736528       28.0793047808
  C         8.1270657743        2.7052765925       22.9040202458
  H         8.4029730161        6.4306967854       23.1147746815
  C         8.5348690668        4.7703313179       21.8680433542
  H         5.1211162504        5.0831895152       23.7530857098
  H         4.6269358459        4.8421304143       25.4016832482
  C         3.7815648923        6.5163762962       24.4519305337
  C         5.7241804235        1.6542222353       28.6920432296
  C         8.5206940129        3.4220893753       21.7964661139
  H         8.1382611138        1.6427783501       22.8660954202
  C         8.9543181435        5.1183974349       20.5816257749
  H         3.0811598669        6.0354969256       23.7301573731
  H         4.0621997153        7.4260377230       23.9611298926
  C         3.0471919124        6.6619627428       25.7677612364
  C         5.6676706804        0.2621830149       28.9034108523
  C         5.1960149317        2.5000492224       29.8174349318
  C         8.9321379010        2.7075500437       20.5351789418
  C         9.0903913653        4.0326738170       19.7900876623
  S         9.3295664332        6.5395734082       19.8669380855
  H         2.3235992736        7.5112754824       25.7769594728
  H         3.7397871052        6.8467027902       26.5855738256
  C         2.1449178913        5.4659597507       26.2839154864
  N         6.1016679536       -0.6736271486       27.9763189688
  C         5.4089440515       -0.2511666794       30.1724079513
  C         4.8579011468        1.9636186780       31.0365607968
  H         5.1278844018        3.5628443352       29.7643669541
  C         7.8049025188        1.8751223138       19.8209092456
  C        10.2290663069        1.9176332353       20.5783589793
  C         9.3547940210        4.2638792842       18.4837488053
  C         9.5143029244        5.6655162148       18.3352419318
  H         1.3350987886        5.1821403959       25.6450730909
  H         2.6078731545        4.4963794612       26.3427192241
  C         1.5231864721        5.7499029131       27.6334712114
  S         6.1922451171       -2.1133444292       28.7061624907
  N         5.5046868929       -1.6525164748       30.1486092177
  C         4.9806503487        0.5355844976       31.2484315673
  H         4.6695252820        2.6391774346       31.7802511283
  H         7.4692326600        1.0915169088       20.5862881219
  H         8.2489775805        1.4355776343       18.9302665407
  C         6.5553652289        2.6660894430       19.3492511867
  H        10.4881907166        1.5231972535       19.6134742743
  H        10.0936770176        0.9755599389       21.1102650312
  C        11.3870230307        2.7765018887       21.0638497086
  H         9.2949233752        3.5354845387       17.7498810924
  C         9.7205822907        6.3605687137       17.0081880879
  H         0.5650598343        5.2332054097       27.7837204362
  H         1.1715615428        6.8269159809       27.7960476338
  C         2.3251599534        5.3061026352       28.8832405328
  C         4.8597967414       -0.0999029595       32.5177950765
  H         6.7786823433        3.4107663821       18.5489152577
  H         6.1774186808        3.1545737253       20.2662975009
  C         5.4078724162        1.8107474526       18.7190319821
  H        11.3161961296        3.1436125604       22.1299473182
  H        11.3829339175        3.6849264331       20.4693858806
  C        12.7402547351        2.1406467653       20.9030166396
  C         9.9601811736        7.7332181217       16.7977926480
  C         9.9157775205        5.4416300297       15.8387209498
  H         2.6956347039        4.2707758274       28.7905840002
  H         3.2966864184        5.7077060639       28.9923178138
  C         1.6085720718        5.4862405075       30.2520494905
  H         5.0095115730       -1.2039050785       32.4694933781
  C         4.6241583814        0.4084288103       33.7683035839
  H         5.6359341072        0.8187376449       19.0309275586
  H         5.5631802859        1.8088508780       17.6311735692
  C         3.9715395989        2.2290818330       19.0956607931
  H        12.8498877803        1.4845584676       21.7330932680
  H        12.8252934699        1.6055624997       19.9470109455
  C        13.9450369609        3.1116265489       20.9729295206
  N         9.8591596970        8.7282724838       17.7208702976
  C        10.4091463623        8.2194870965       15.5576075292
  C        10.3291471233        5.9333352730       14.5911273896
  H         9.8451799790        4.3911341674       16.0291017559
  H         1.5950426904        6.5405394167       30.4894907319
  H         0.6269157754        4.9021949651       30.3129307074
  H         2.2486166754        5.0735408318       31.0583833915
  S         4.3099614748        2.0578822266       34.3331999924
  C         4.6236143553       -0.6120188927       34.8586226158
  H         3.9123853948        2.6401667395       20.0707657718
  H         3.6123056531        2.9341258363       18.3958470206
  C         3.0880744563        1.0036563103       19.2266984523
  H        13.6744749614        4.0197430773       20.4257170700
  H        14.7768618427        2.6554203821       20.4233529623
  C        14.3369305900        3.4339034269       22.4246231082
  S        10.0915646326       10.1439305234       16.9582661120
  N        10.5950085930        9.5376594827       15.5414915537
  C        10.5852660164        7.3697238059       14.4142812671
  H        10.4092523811        5.2354095200       13.7734772701
  C         4.2385458974        1.3733206249       35.9353983480
  N         4.3122295695        0.0058054381       36.0095133798
  O         4.9167760825       -1.7777813021       34.7070650215
  H         2.1116339985        1.2747461290       19.5134934389
  H         3.5025486479        0.2868323599       19.8816911510
  C         3.0631726129        0.2124920163       17.9589249064
  H        15.0434512098        4.2732737202       22.4432942837
  H        13.4791814279        3.6176113214       23.0931217738
  C        15.0492775668        2.2255795312       23.0946322658
  C        10.8349003945        7.9881272992       13.1504644415
  S         3.9986746480        2.3125395132       37.4436443364
  C         4.4059858295       -0.8011309886       37.2623499531
  H         3.0903610153        0.8670726004       17.0493354557
  H         4.0155463368       -0.3834222970       18.0184258382
  C         1.8027523218       -0.7368126554       18.0161091531
  H        14.9974150649        1.3448648730       22.5300543724
  H        14.4696402272        1.9923241207       23.9853388657
  C        16.4500666708        2.4721678626       23.4192988377
  H        10.5786633428        9.0235314683       13.1054284235
  C        11.4334848653        7.5596148750       11.9942450839
  H         3.7878019884       -0.2347345777       37.9754035522
  H         3.9398453930       -1.7645199035       37.1284227493
  C         5.8571371466       -1.0262164296       37.7660895951
  H         1.0254973314        0.0123515797       17.9542232791
  H         1.5824518821       -1.2080756442       18.9206335928
  C         1.6941216526       -1.7789124085       16.9002603535
  H        16.4757509353        3.4506912116       23.8755572996
  H        16.6253934742        1.7032566473       24.1860796047
  C        17.2954405005        2.3607399473       22.1546071772
  S        12.1216632418        5.9758015644       11.8328032338
  C        11.5126039885        8.5423161431       10.8375741030
  H         5.8909838017       -2.0666048087       38.0816987583
  H         6.5323486933       -0.8599784017       36.8992173458
  H         5.9930579476       -0.3338902140       38.6071005219
  H         1.9224057308       -1.3753502278       15.9174651667
  H         0.7085325360       -2.1297850987       16.8662967807
  H         2.2546196326       -2.6603056396       17.0669286366
  H        18.3461797950        2.2732455096       22.3454128201
  H        17.2422190110        3.2840150502       21.6204234000
  H        17.0087657064        1.4582973260       21.5907724186
  C        12.7385383316        6.7000382886       10.2232568105
  N        12.2746425014        7.9210475942        9.8632474003
  O        11.1123659359        9.7105914453       10.9127378481
  S        13.9403448043        5.8316933013        9.2132641111
  C        12.8724778217        8.5067414610        8.6916896358
  H        13.9138623491        8.7332047426        8.8585885966
  H        12.8601819005        7.7732700011        7.8217685198
  C        12.0283325577        9.6478494750        8.1082387579
  H        12.2590405320       10.6918008497        8.4462175601
  H        12.1840176710        9.6225182629        7.0265750330
  H        10.9187115648        9.5964985408        8.3241363483
  H        -3.5817507472       15.0059143403       16.3421697689
  C        -3.2471936557       13.9355347403       16.3823745553
  H        -4.1756208593       13.4043184428       16.5043576110
  C        -2.2334145033       13.8649710640       17.5617907844
  C        -2.4863668687       13.6778127666       15.0564336840
  C        -2.9096934784       13.7938367376       18.9590380530
  H        -1.4555288339       13.1251159292       17.5325748339
  H        -1.6839791177       14.8083093746       17.3828001315
  H        -3.1175273933       13.7122873046       14.2219340712
  H        -1.6143497871       14.3758841559       14.9403292557
  H        -2.2795388607       12.6073352223       15.0441160743
  C        -1.8527129780       13.8073250056       20.0290677067
  H        -3.4037598765       12.8226155685       19.0933874054
  H        -3.6875904906       14.5689662058       19.0557581370
  C        -2.3810056948       13.8760674289       21.4524002091
  H        -1.2060611554       12.9110666240       19.9374317901
  H        -1.2560949267       14.7749711724       19.9639690833
  C        -1.3584925113       13.4263358068       22.5342534909
  H        -3.1929103788       13.1828840453       21.4749013818
  H        -2.9574603025       14.7330901219       21.7776401879
  C         0.0616052630       14.0670275714       22.4942063876
  H        -1.7809579359       13.6234483901       23.5174239013
  H        -1.1984304863       12.3016092521       22.4747625928
  C         1.0364491050       13.2519383824       23.3232077654
  H         0.4511674865       14.0206940013       21.5212758667
  H        -0.0807419511       15.1574552844       22.6887365440
  C         1.2767028273       11.9288587882       22.5579032606
  C         0.5109778231       12.5015744121       24.4976516102
  C         2.2719886558       14.0781119250       23.6164717916
  C         1.0699272914       10.7896740383       23.3301883568
  C         1.7674665444       11.5822338434       21.2955283250
  C         0.5336704801       11.1146825588       24.5427759178
  C         0.0039400858       13.1808280014       25.5974923038
  H         2.5913495506       14.5499911779       22.7115164584
  H         2.0043424851       14.9848689254       24.2230431332
  C         3.4649620210       13.2015327313       24.1825468441
  S         1.5601709102        9.3052369776       22.4727384297
  C         1.9634766028       10.2240625621       21.1055179193
  H         1.8896426848       12.4143719955       20.5888355312
  C         0.0374153105       10.4445414980       25.6908956425
  H         0.0177493886       14.2150763365       25.5947872427
  C        -0.5270421002       12.5227003894       26.7034027832
  H         3.5979273341       12.3143174488       23.5782130872
  H         3.1018055065       12.8367140168       25.1269502920
  C         4.7395220330       14.0707423012       24.4076002479
  C         2.4239901160        9.6215880044       19.8397732950
  C        -0.5679611544       11.1461687442       26.7724380371
  H         0.0113187754        9.3731997187       25.6336372548
  C        -0.9817826635       12.8928930702       27.8925279862
  H         5.3559328196       13.7293392088       25.1681163785
  H         4.4928043076       15.0563583357       24.7273129459
  C         5.3869096471       14.3941953195       23.0207588084
  C         2.4882618412        8.2087329004       19.5149363694
  C         2.8940741384       10.4660199675       18.7547426865
  C        -1.1130655597       10.4597611749       28.0638437034
  C        -1.3470264231       11.8410829017       28.7084028040
  S        -1.0762445214       14.4506821072       28.7525801888
  H         6.4418664920       14.7698317345       23.0760685330
  H         4.6952528810       14.9759673968       22.5600546345
  C         5.6672721177       13.1561639104       22.0488903202
  N         2.2377023356        7.1661524354       20.4323767639
  C         2.8722221671        7.6746849431       18.2909520341
  C         3.3454138029        9.9382173973       17.5533092651
  H         2.9595982228       11.5197648892       18.8611687995
  C         0.0088704538        9.5865390463       28.7893908464
  C        -2.4427190138        9.7475643672       27.8117017089
  C        -1.6824547235       12.3035847782       30.0270602625
  C        -1.6764453468       13.6756545597       30.1618188256
  H         6.2285998610       12.3949712935       22.5392063291
  H         4.7543619865       12.7682435034       21.6785405837
  C         6.3875010655       13.6998968617       20.7579288334
  S         2.4112647864        5.7387186717       19.7086958767
  N         2.7086243985        6.3065907717       18.2282623706
  C         3.2695440112        8.4823795242       17.1785585312
  H         3.7256699685       10.6073586773       16.8092736736
  H         0.2966121931        8.7984859392       28.2234916961
  H        -0.4016922989        9.1385713252       29.6919509504
  C         1.2103671063       10.3863385088       29.0439178960
  H        -2.1992554297        8.9159437811       27.1640796224
  H        -2.6591073492        9.3523604853       28.7983456332
  C        -3.6414864589       10.5951329231       27.2201097550
  H        -2.0662712034       11.6526868045       30.7892150200
  C        -1.9173899251       14.4428798459       31.4681040467
  H         7.4028636663       13.4050013423       20.8383390777
  H         6.4360689828       14.7885782454       20.8360245060
  C         5.8921725564       13.1426737140       19.3818762713
  C         3.5227611566        7.9754093519       15.8682666654
  H         1.6075424017       10.9253076276       28.1817195502
  H         1.0383115374       11.2084458805       29.7098620680
  C         2.3616873873        9.6211746393       29.7449224538
  H        -3.3298605563       11.2519373585       26.4421389595
  H        -4.1096491334       11.2239151834       27.9935088021
  C        -4.8270181154        9.7685946729       26.7200267672
  C        -1.7544082072       15.8235623191       31.7034748431
  C        -2.3302513139       13.6271311325       32.7265038312
  H         5.7438368214       12.1110348720       19.4032439960
  H         4.9058885411       13.5328263713       19.1006280494
  C         6.8692737826       13.5841775705       18.2654912602
  H         3.4775417284        6.9376110611       15.8828050291
  C         3.8178680244        8.4969948958       14.6543744510
  H         2.9893473200        9.0084919038       29.1030532729
  H         1.7950930242        8.9072469827       30.4736312055
  C         3.2742078743       10.5923358351       30.5175903897
  H        -4.3916625304        9.1676615202       25.9102844199
  H        -5.1513593533        9.0310938973       27.4704899781
  C        -6.0038895975       10.6829639815       26.3854628336
  N        -1.3834456602       16.7558232576       30.7068161581
  C        -1.9876170322       16.4152423171       32.9049819071
  C        -2.4912914400       14.2579437128       33.8842314098
  H        -2.5720381897       12.5365941047       32.7397860938
  H         7.8200581227       13.0348921690       18.1776495283
  H         6.3807077416       13.6673264032       17.2833745950
  H         7.1204111498       14.6353627007       18.3873608241
  S         3.9493264439       10.1586048729       14.1788904696
  C         3.9910747013        7.4729465775       13.5831864222
  H         3.5079534514       11.4848117250       29.9212746699
  H         2.7871122354       11.0422563844       31.4046389702
  C         4.5896481677        9.7974341803       30.8306508216
  H        -6.2130596531       10.5244890783       25.3488420795
  H        -5.8990657103       11.7955360599       26.2604750925
  C        -7.1722582753       10.3296629393       27.2823890146
  S        -1.2591458096       18.2473232335       31.3132699222
  N        -1.7712066907       17.8528689926       32.8409472426
  C        -2.4769257944       15.7538683072       33.9828906176
  H        -2.8074145068       13.7119724580       34.7060109080
  C         4.3450509634        9.4840636669       12.5822780160
  N         4.3109413567        8.1645278705       12.4878534743
  O         3.9694276180        6.2672993034       13.7285944648
  H         5.3639843566       10.2950081674       31.5559176451
  H         5.0103737461        9.6293942706       29.8905853668
  C         4.4342660324        8.4684771724       31.5033964455
  H        -7.3649929066        9.2764049893       27.4597554905
  H        -6.9627674712       10.7436525465       28.2767702845
  C        -8.5222215519       11.0680389498       26.9280489033
  C        -2.5884329531       16.4713048935       35.1853270930
  S         4.5653157664       10.4034476803       11.1342854471
  C         4.3472435143        7.4360756254       11.2453967576
  H         4.7791386506        8.5899054714       32.5182834051
  H         3.3881370314        8.1941144771       31.5767458713
  C         5.1626330511        7.3579298469       30.7500856722
  H        -8.3704210456       12.0490126701       26.5792831483
  H        -9.0341675532       11.1546643580       27.8935017699
  C        -9.3805479252       10.2374962968       25.9187224923
  H        -2.4832110371       17.5482514405       35.0806082936
  C        -3.2306206746       16.1662082192       36.3859556649
  H         4.9864013042        7.9225828158       10.4770773627
  H         4.8015390752        6.4068027614       11.3305726904
  C         2.9001080044        7.2481640987       10.6916138782
  H         6.1115015704        7.7283531627       30.3290909647
  H         4.6781664653        7.0262251232       29.8832664928
  C         5.5256615298        6.1717422242       31.6363554707
  H        -9.5196283347        9.2036412993       26.3116301892
  H       -10.3148005466       10.6984834476       26.0508474470
  C        -8.8814012098       10.1932726676       24.5040763220
  S        -3.7356266360       14.5686434451       36.8540730883
  C        -3.4238568146       17.1926085015       37.5184589857
  H         2.8793839228        6.5434279354        9.8630077856
  H         2.2913314413        6.6224230806       11.3865881243
  H         2.3636808183        8.1423676885       10.3697112652
  H         6.2253247399        5.6110285411       30.9654671961
  H         4.7917190428        5.3963491971       31.8277914255
  H         5.9231761249        6.3614766759       32.6653264657
  H        -8.3321436365        9.2798331801       24.1599492845
  H        -8.3831816883       11.1804662195       24.2368138281
  H        -9.7309324606       10.1238848877       23.8532142695
  C        -4.2329740533       15.2272909390       38.3409963157
  N        -3.9678471250       16.4955145902       38.5601724959
  O        -3.1216978922       18.3471438200       37.4679417015
  S        -4.9606180419       14.3053978472       39.6654641541
  C        -4.1626008287       17.2480454936       39.8433703510
  H        -4.7301867287       18.1457025290       39.4837056028
  H        -4.8695708713       16.7722382470       40.6085347070
  C        -2.7652871353       17.5917259753       40.5036448768
  H        -2.2126008603       18.2816585916       39.8344727646
  H        -2.9436289168       18.1634557003       41.3466639824
  H        -2.0682011946       16.7556310917       40.7604673573
