352
 i =    32900, time =    32900.000, E =        24.9750056476
  H        12.5442367371        6.7127931339       32.0911456653
  C        11.5361673498        6.3937802911       32.0632141538
  H        11.5386655621        5.3120136364       32.0434600617
  C        10.8916199130        7.0538455258       30.8564733607
  C        10.7610763026        6.6065230583       33.3833246426
  C        11.2776052796        6.4963896395       29.5389397680
  H         9.7774316389        6.8190743944       30.9800031018
  H        11.0884097869        8.0701471233       30.8854761817
  H         9.8587710783        5.9644226260       33.4697356701
  H        11.4182204204        6.3634395207       34.1680308170
  H        10.6177332439        7.6791392689       33.6265021610
  C        10.0636992431        6.1949774147       28.5581713764
  H        11.7813030524        5.5418721281       29.7276878937
  H        11.9538758512        7.2721780134       29.0983883511
  C        10.6271884299        6.1514885743       27.1076676388
  H         9.7107091997        5.2032254185       28.7671263455
  H         9.1957661855        6.9168075106       28.5206613893
  C         9.6002687569        5.4693333145       26.2417193049
  H        11.6056196540        5.5742061960       27.1367992631
  H        10.8042023249        7.1948208660       26.9146888162
  C         8.5611518545        6.4823393002       25.7218097718
  H        10.1070156482        5.1420198206       25.3599032015
  H         9.1517896621        4.6735613341       26.7920865452
  C         7.3585623028        5.6922996810       25.1208805394
  H         8.1048611886        7.0359461776       26.6154355379
  H         8.8407080440        7.2220059009       24.9708274577
  C         6.9337744656        4.3505130079       25.9115045398
  C         7.8277420254        4.9100279910       24.0067167805
  C         6.1375723161        6.5815940406       24.8318997119
  C         7.1925069364        3.2650980887       25.1403962446
  C         6.2190526058        4.0329378904       27.0906212660
  C         7.9072991971        3.5723042769       23.9874585900
  C         8.3807420252        5.5233602380       22.8520280302
  H         6.3489533137        7.3882215104       24.1791286542
  H         5.7916972227        6.9627321717       25.7964234488
  C         5.0042849135        5.7520558640       24.3719501063
  S         6.6449668789        1.8161976346       25.7980279626
  C         6.0823719305        2.6585005726       27.2064886583
  H         5.8510088805        4.8235742842       27.7125173908
  C         8.3609219108        2.8521986644       22.8521796990
  H         8.4073057832        6.6503415935       22.7534888892
  C         8.8195769425        4.8513477303       21.7401591554
  H         5.3099138899        5.3961646910       23.3934251223
  H         4.7729609055        4.8917117276       24.9778051406
  C         3.7048963292        6.4728153555       24.0934048695
  C         5.7607889606        1.9132269189       28.5189433847
  C         8.8477484478        3.5039382227       21.6899882017
  H         8.2788607344        1.7950381620       22.7865306197
  C         9.2974719458        5.2055829244       20.5174708286
  H         3.1908136972        5.7249365849       23.5046159229
  H         3.9151735491        7.4348690579       23.5299340389
  C         2.7770324042        6.7553537039       25.2948606260
  C         5.7851662146        0.5557310830       28.7790357730
  C         5.3490964298        2.7115582439       29.7445811731
  C         9.2781877067        2.7561978319       20.5204612346
  C         9.7033997020        4.0847541207       19.8025150174
  S         9.6238512565        6.7295441715       19.7876919256
  H         1.8337997196        7.2043249346       24.9209145834
  H         3.3764106153        7.3908186300       25.9232139818
  C         2.2491121538        5.5763702084       26.0956284057
  N         6.1943560175       -0.3677916926       27.8203548220
  C         5.5663238574       -0.0263486498       30.0081152841
  C         4.9535941489        2.0404911061       30.8902398387
  H         5.3921526489        3.7894415867       29.6761793975
  C         8.0829824173        2.0758522784       19.7910866296
  C        10.4985490382        1.8322258956       20.6143771229
  C        10.0916701702        4.4939944658       18.5323152493
  C        10.0643658962        5.8458059093       18.3838501101
  H         1.7312538975        4.9082553766       25.3940875176
  H         3.0444477418        4.9923405420       26.5574478349
  C         1.2140403665        5.9222723327       27.1321376258
  S         6.1748340119       -1.8656327516       28.4835786791
  N         5.8153373178       -1.4049445046       30.0118972244
  C         5.2011321581        0.5908282825       31.2154737751
  H         4.5317526121        2.6614228910       31.6824881546
  H         7.5426016888        1.6514029046       20.6383069667
  H         8.3343616571        1.2401473527       19.1360309638
  C         7.0229561784        3.0735244098       19.2330738225
  H        10.5940175762        1.4078647036       19.6493430824
  H        10.2879067806        0.9861402219       21.2432366295
  C        11.8023868584        2.4822702048       21.2087210490
  H        10.3441142041        3.7601872430       17.8316223756
  C        10.4596753524        6.5494846959       17.1204696357
  H         0.5425633048        5.0525458945       27.2211536642
  H         0.5275449736        6.8083149222       26.8921947707
  C         1.6224472238        5.9337092352       28.6307966426
  C         4.9846866491       -0.1031192849       32.4262237528
  H         7.5033603427        3.6404111650       18.3542107618
  H         6.7645252528        3.9127205833       19.8866339678
  C         5.6887566460        2.4632192700       18.7321505820
  H        11.6534633752        2.9016739249       22.2528804813
  H        12.1193808687        3.3041613684       20.4966799880
  C        12.9888264673        1.4994657084       21.3384482783
  C        10.4983801491        7.9612719860       16.8635073234
  C        10.7408250374        5.6646624736       15.9143478094
  H         1.3984486849        6.9782302303       28.9043758233
  H         0.9569427159        5.3447861449       29.2149035699
  C         3.0241110317        5.4847245989       29.0108351495
  H         5.0195902397       -1.1603159860       32.3507150438
  C         4.5931063281        0.3233982261       33.6659214160
  H         5.2912744602        2.0394888902       19.6676122565
  H         5.9958034387        1.6893095352       17.9846284772
  C         4.7881803721        3.4926697100       18.1223056176
  H        13.0149876264        1.0572701293       22.3289397730
  H        12.9823053679        0.6698770362       20.5221965264
  C        14.3411375190        2.1566323624       21.0726017498
  N        10.2489157445        8.8825991480       17.8568040189
  C        10.8672607650        8.4784286878       15.6481678115
  C        11.3180061443        6.2666100646       14.7679816711
  H        10.6889596327        4.5817883104       16.0444078228
  H         3.2102920900        4.5603794483       28.4909439094
  H         3.7356815686        6.1702463740       28.5521452257
  H         3.2492002491        5.2751601993       30.0441478763
  S         4.3181539294        1.9446193758       34.1995987249
  C         4.5556414680       -0.6860340798       34.7676558972
  H         4.6365339658        4.2080383117       18.8386239372
  H         5.2040228446        3.9255784977       17.2199932116
  C         3.4483610157        2.8772295738       17.9710455817
  H        14.2940469002        2.8779402881       20.2483214412
  H        15.0932335411        1.3381891606       20.8493948427
  C        14.8437088525        2.9468575529       22.3367124897
  S        10.2856969052       10.3820127690       17.1534880352
  N        10.6920881010        9.8975009462       15.6189507037
  C        11.2741436256        7.7388466984       14.5429066972
  H        11.6487790681        5.6437212296       14.0152435428
  C         4.0424217296        1.2713756370       35.8046406697
  N         4.2503214845       -0.0981702177       35.8852152167
  O         4.8927844691       -1.8653126369       34.5906330813
  H         2.8025779733        3.6921670855       17.5324762480
  H         3.1881818168        2.7290087309       19.0208146713
  C         3.4669537704        1.6422358627       17.0585969790
  H        15.6240026195        3.6365891493       22.0033664189
  H        13.9211998355        3.5814100717       22.6709151182
  C        15.4996977804        2.0998986460       23.4916386237
  C        11.5062370276        8.4507904537       13.2809412954
  S         3.9298799614        2.2218581472       37.3376987015
  C         4.2451004282       -0.9156298600       37.1058733833
  H         2.7396049417        1.8144729792       16.2466654337
  H         4.3491741581        1.7951652995       16.5405715281
  C         3.3334186058        0.3118386197       17.8433156926
  H        15.2385642904        1.0489153027       23.5844180805
  H        15.0635447551        2.5114477066       24.4157864711
  C        17.0398469403        2.2908578813       23.5500722541
  H        11.2941851227        9.5398728939       13.3017180857
  C        11.9749498456        7.9972227017       12.0671341616
  H         3.5412584240       -0.4819890430       37.8244054266
  H         3.8202768160       -1.8866704534       36.8197191518
  C         5.7906988711       -1.1501853409       37.5766092416
  H         3.0254437020        0.4868682663       18.9103192362
  H         4.2895931685       -0.1870226150       17.9083046414
  C         2.3014812237       -0.7051700765       17.3082525563
  H        17.2673528098        3.3557231407       23.6715487613
  H        17.5235785845        1.8182779813       24.3683525629
  C        17.7134539072        1.7027373190       22.2881632704
  S        12.3786521314        6.3740198302       11.7137809461
  C        12.1579474024        8.9645197759       10.9787145113
  H         6.4504026937       -0.7301476287       36.8300583258
  H         5.9243915276       -0.5143380143       38.4349006338
  H         5.9426888430       -2.1309748798       37.8154923993
  H         2.3170680492       -1.6208226506       17.9417936679
  H         2.5209895025       -1.0530839560       16.3079482049
  H         1.3373669677       -0.1608966123       17.3869773235
  H        17.1310011140        0.9016792725       21.7538031038
  H        18.6904713857        1.3398784199       22.4824910750
  H        17.9034453823        2.4495711677       21.5899098848
  C        12.8765883564        7.0128122743       10.1278451903
  N        12.7229274041        8.3350152833        9.9500049589
  O        11.9771031071       10.1931627145       11.1489883308
  S        13.4765457349        6.0469524628        8.7994662042
  C        12.8912856058        8.9202084143        8.6093308962
  H        13.1955817786        9.9499697196        8.7761471215
  H        13.7598214791        8.6297642323        8.0445993489
  C        11.5592175460        8.9340815707        7.9365625103
  H        11.0903000453        9.7649807445        8.4141824892
  H        11.5766023321        9.1305139689        6.9068192957
  H        11.0033424165        8.1160591362        8.2034482346
  H        -3.1605652315       15.0954522663       16.9030578590
  C        -2.8595567046       14.1088019234       16.5806587391
  H        -3.6057323693       13.3627186770       16.9003995875
  C        -1.5876193753       13.6893677239       17.3420283042
  C        -2.6414243254       13.9530891828       15.0437669669
  C        -1.6780195186       14.2111594756       18.7418190280
  H        -1.5827341547       12.5862911447       17.3632505318
  H        -0.6475862437       14.0192701390       16.8408916988
  H        -1.6767894669       14.3125792098       14.6438795768
  H        -2.6237112651       12.9407202559       14.6231181544
  H        -3.4770210378       14.5329379655       14.6155566473
  C        -2.2887108087       13.2390729657       19.6958170400
  H        -2.3487725006       15.1053110139       18.8011760446
  H        -0.6655555419       14.5147401418       19.1687951360
  C        -2.4154984530       13.9470688435       21.0788546875
  H        -3.3340990074       12.9324380990       19.3353027402
  H        -1.6927007066       12.3602513441       19.8241312936
  C        -1.5552038279       13.3281697685       22.2214410491
  H        -3.4690268851       14.0394528162       21.2957205068
  H        -2.1404021518       14.9486606257       20.8157537308
  C        -0.1803197762       14.0028745548       22.4747199620
  H        -2.1072809052       13.2277212462       23.1796085736
  H        -1.5210093189       12.2179341551       21.9710925090
  C         0.9332961996       13.2932702050       23.1708355845
  H         0.2826717473       14.4646451803       21.6031795571
  H        -0.2940728423       14.8414558385       23.2047383632
  C         1.2204036335       11.9675357816       22.4134420014
  C         0.5959524314       12.6032969128       24.3555359933
  C         2.1832047756       14.2142036707       23.4047811727
  C         1.1293456716       10.8532972156       23.2424768212
  C         1.7396713355       11.6670171305       21.1279694892
  C         0.6536354331       11.2273792150       24.4175106570
  C         0.1052724353       13.2607498712       25.4985594816
  H         2.4830810527       14.6353164240       22.4439143734
  H         1.8938309575       15.0122170337       24.1113881393
  C         3.4604584835       13.4738871619       23.9092898425
  S         1.4941773699        9.4176219734       22.3812675186
  C         1.9879528330       10.3329379618       20.9579048290
  H         1.7943580964       12.5246787063       20.4257012449
  C         0.2346249494       10.6022165015       25.5551717324
  H        -0.0148570158       14.3178274893       25.5617266610
  C        -0.3258061970       12.6167983817       26.6696020982
  H         3.8126281371       12.6556943900       23.2657905221
  H         3.1044547556       12.9975167105       24.8102981196
  C         4.6109921411       14.4054585945       24.2474836447
  C         2.4587771621        9.6823659254       19.7406521810
  C        -0.2390572749       11.2519051766       26.7085457447
  H         0.1864135591        9.5532327754       25.6692620234
  C        -0.7057029606       12.9175071035       27.9232962467
  H         5.3106039582       13.8506650208       24.9123946374
  H         4.2493298588       15.1682887310       24.8945286806
  C         5.4353671017       14.8383622656       23.0300699372
  C         2.6668270148        8.3428230965       19.5558990446
  C         3.0170540105       10.5824381703       18.6866679731
  C        -0.6556972713       10.4619596981       27.9311027082
  C        -0.9384251429       11.8327726369       28.7224054441
  S        -0.8336941429       14.3983408159       28.7658507395
  H         6.0675999848       15.6971934321       23.3246704047
  H         4.8346082916       15.1469710577       22.1566070523
  C         6.3410757264       13.7428401573       22.4859135214
  N         2.2263836378        7.3886077298       20.4242302914
  C         3.0692788000        7.7776274566       18.3401418476
  C         3.3788559194        9.9854650571       17.4563616639
  H         2.9539442686       11.6792426936       18.7765171853
  C         0.5428853214        9.7540453320       28.6438359458
  C        -1.9520274562        9.6464035520       27.6671456217
  C        -1.3974013132       12.1885742457       29.9800393397
  C        -1.3484055695       13.5494271223       30.1283691104
  H         7.0408624821       13.5654688666       23.3490994203
  H         5.8523960672       12.8237102328       22.2830544828
  C         7.1806043905       14.2402431605       21.3111876975
  S         2.6983760316        5.9699002925       19.8321925177
  N         3.1640968229        6.4047179609       18.3659919064
  C         3.4203207513        8.5666913160       17.2727831295
  H         3.7217620909       10.5321684143       16.6019279069
  H         0.8526898856        8.9873606447       27.9347294929
  H         0.0731162138        9.2268985048       29.5234343043
  C         1.7802807332       10.5538834304       28.9784114777
  H        -1.6320352570        8.8202403318       27.0426864234
  H        -2.1673532089        9.0467807931       28.5840460208
  C        -3.1558146351       10.3424001975       27.1335446233
  H        -1.6766407318       11.4517470470       30.6026937024
  C        -1.6599816205       14.3112563488       31.4490910174
  H         7.9152689908       13.4506888234       21.0961429824
  H         7.6830755168       15.1596154559       21.5842419962
  C         6.3809344511       14.4468957441       19.9783327045
  C         3.7451844504        7.8360324213       16.0697097618
  H         2.1555797362       10.9825749959       28.0691060472
  H         1.5346199021       11.3904640880       29.6545487103
  C         2.8862727252        9.6276464685       29.5026904168
  H        -3.0354987967       10.5884647001       26.0845177393
  H        -3.2213566467       11.3749296081       27.5688730031
  C        -4.3586352635        9.4791228381       27.4273731088
  C        -1.7041574904       15.7707903828       31.6110447580
  C        -1.8037295609       13.5359255199       32.7531699011
  H         5.6166303592       15.1842456933       20.0453271521
  H         7.1351856318       14.7823508162       19.2459467103
  C         5.7257183689       13.2451585469       19.3701597382
  H         3.7237550622        6.7502193945       16.0857925020
  C         4.1076645827        8.1490046597       14.7673520400
  H         3.0757334325        8.8810027639       28.7484422468
  H         2.5320988595        9.2230639396       30.4133317968
  C         4.2037861948       10.3516545839       29.7931420143
  H        -4.3141069386        8.5423680456       26.9808226290
  H        -4.3340717481        9.1728300614       28.5390039880
  C        -5.7017569130       10.1819554235       27.0846069127
  N        -1.5598651208       16.7314204630       30.5832400089
  C        -1.9914697631       16.3617132640       32.8370139911
  C        -2.1669019421       14.1445466770       33.9462580273
  H        -1.6362320182       12.4685402559       32.7211043757
  H         6.3374689421       12.3566723281       19.5884516657
  H         4.6568759581       13.1029233453       19.7920378277
  H         5.6115049167       13.3568899462       18.2684947560
  S         4.3888844710        9.7373308318       14.2609834470
  C         4.2121748400        7.0869729020       13.7130020384
  H         4.1732767120       11.1300712791       29.0020049831
  H         4.2021359088       10.7741068845       30.7608402965
  C         5.3999368577        9.3646007231       29.6326678045
  H        -5.7218116958       11.2416686802       27.4781122107
  H        -6.4049000120        9.5697313580       27.6479890176
  C        -6.0038289999       10.1626939674       25.5470422140
  S        -1.4889280163       18.1825778403       31.2594204669
  N        -1.9001117857       17.7179840072       32.8382037248
  C        -2.3618800321       15.6257116583       34.0157125545
  H        -2.1138162696       13.4758333116       34.8401718581
  C         4.7252748048        8.9400066838       12.6485311316
  N         4.6777682026        7.6018636521       12.6228888532
  O         3.9962507134        5.8429118184       13.9257992392
  H         6.3486492145        9.8003181461       29.5296398287
  H         5.2059598779        8.8523214448       28.7142678868
  C         5.5143375126        8.4585158369       30.8812592194
  H        -5.0887955267       10.4515012222       25.0803859161
  H        -6.1055617684        9.1356427229       25.3444592805
  C        -7.2241079190       10.9756418377       25.1359809573
  C        -2.6019072861       16.4342067308       35.1908306962
  S         4.7321038792        9.7672684211       11.1170767640
  C         4.6690113637        6.8600679118       11.4260352570
  H         5.7165447336        9.0690933833       31.7709194167
  H         4.5898488228        7.8734752467       30.9826847568
  C         6.6308242769        7.4265196638       30.6882375692
  H        -7.2113256190       11.0776018597       24.0948941707
  H        -7.1037250564       11.9352929209       25.5970148806
  C        -8.5095842065       10.2507637148       25.5743733258
  H        -2.3729166228       17.4787615867       35.1671661909
  C        -3.1378267775       16.0477416308       36.3857029578
  H         5.3728026416        7.2321294413       10.7255556216
  H         5.1512402487        5.9084379264       11.6381645247
  C         3.2541507178        6.6467404341       10.7978281383
  H         7.5939817720        8.0016375102       30.5611643148
  H         6.3642872358        6.8946834310       29.6777175303
  C         6.8281214687        6.4037505354       31.8571741930
  H        -9.2580517202       10.4752818554       24.9087449383
  H        -8.4083405839        9.1728590770       25.5818744338
  C        -9.0022504668       10.7458481195       26.9188435955
  S        -3.6055886679       14.4093867179       36.8828585164
  C        -3.3243576857       17.0750008105       37.4799048315
  H         2.4566849920        6.5262123583       11.5822796500
  H         2.7783314049        7.4292529517       10.1766557317
  H         3.3616137596        5.6775168884       10.1889621228
  H         7.8477367912        6.0961896558       31.8119058212
  H         6.3755403632        5.4343114380       31.6013932657
  H         6.5215730666        6.8268429200       32.7606663072
  H        -8.4251211870       10.4315404708       27.7458428044
  H        -9.8986463553       10.1456513487       27.0622620400
  H        -9.3614160553       11.7651345230       26.9324363643
  C        -4.1707705818       15.1802940838       38.3665838881
  N        -3.9292959513       16.5339637803       38.5374661454
  O        -2.9135872417       18.2188075498       37.4422292848
  S        -4.7721919647       14.2381219347       39.7342605599
  C        -4.0478784085       17.1883056701       39.8534032124
  H        -4.3900702222       18.2246364456       39.7576068047
  H        -4.9806766194       16.7716348017       40.3440796106
  C        -2.7502039583       16.9717349439       40.6404487399
  H        -2.6169430903       17.8896921653       41.1992537424
  H        -2.7074850484       16.0716401934       41.2806565697
  H        -2.0189952838       16.9497099781       39.8173467361
