352
 i =    21200, time =    21200.000, E =        24.5668823601
  H        11.3867588893        7.1834602901       33.1047900404
  C        11.6886295399        6.4571462931       32.3669206647
  H        12.6824167846        6.5991112006       31.8921210171
  C        10.6684901774        6.4167579965       31.2544485381
  C        11.7583408860        5.1640073516       33.1647563162
  C        11.1264108599        5.7675507095       29.9948275545
  H         9.8502355389        5.7821831803       31.5450392286
  H        10.3878501949        7.4236173187       31.0015938839
  H        12.7000076794        4.6884349316       33.0285203488
  H        11.5039014270        5.2920159456       34.1827912965
  H        10.9896786409        4.5102451399       32.7706076803
  C         9.9746922854        5.5727487727       28.9714445775
  H        11.5180369342        4.7597410418       30.2902861356
  H        11.8962102624        6.3725370395       29.4980820185
  C        10.5457464475        5.4876201571       27.5717383295
  H         9.3325358668        4.6922282585       29.1154846921
  H         9.2967587239        6.3739021396       29.0465695150
  C         9.4811038992        4.7416112023       26.6747901974
  H        11.4599891074        4.9148170019       27.4297401199
  H        10.7273432341        6.4895696651       27.1633248071
  C         8.3417125333        5.6135576753       26.1547245811
  H        10.0053805037        4.4708976754       25.8097324301
  H         8.9957995350        3.9326452304       27.3070191301
  C         7.1750650605        4.8825937857       25.2507335002
  H         7.8495298191        6.0856998343       27.0001926404
  H         8.7939128441        6.3646136301       25.5415476959
  C         6.8793948155        3.5828014837       25.9416043329
  C         7.6959344359        4.1142625626       24.0285490188
  C         5.8751667638        5.7318056052       25.0587122973
  C         7.2017330551        2.4421172427       25.2220252933
  C         6.2909514594        3.2913376212       27.1580423469
  C         7.6417891264        2.7860981417       23.9382907952
  C         8.3153216191        4.7479134520       22.9414044192
  H         6.0707031898        6.5382401943       24.3857851738
  H         5.6389498018        6.1024581040       26.0426721056
  C         4.6925612985        4.9696161694       24.5506716260
  S         6.7962979426        1.0297889325       26.0185850580
  C         6.2812311183        1.9642898936       27.4022673800
  H         5.9082947826        4.0883571471       27.8256891650
  C         7.9219268185        2.1286361516       22.7543668273
  H         8.3243043691        5.8437963320       22.9443425286
  C         8.5864336564        4.1218352194       21.8208792774
  H         5.1007283250        4.6300856298       23.6407047574
  H         4.4249820622        4.0291234092       25.0304058544
  C         3.3350450989        5.8066415984       24.5128330967
  C         5.9369471729        1.3049869741       28.7127294548
  C         8.4049927095        2.8209974063       21.6540656013
  H         7.7238103626        1.0825450597       22.7134603749
  C         8.9104762968        4.4628972794       20.5329879797
  H         2.5711999995        5.3185111612       23.8908759989
  H         3.5035420994        6.7679842612       24.0489658699
  C         2.6245926624        6.0932956129       25.8768890646
  C         5.8188491128       -0.0684059815       28.9411230463
  C         5.6962741669        2.1241499013       29.9103997065
  C         8.6621420800        2.1027674226       20.3571869614
  C         9.0321554714        3.4107831000       19.6818083860
  S         9.2693508325        5.9886555347       19.7433283302
  H         2.1292968173        6.9993613290       26.0495265669
  H         3.5227844397        6.1576643761       26.3865546680
  C         1.8292943575        4.8710907962       26.3867341230
  N         5.9399520841       -1.0138166606       27.9155124872
  C         5.5373993670       -0.6261080707       30.1721141899
  C         5.3562483853        1.5888362297       31.1595027521
  H         5.6044617195        3.2019562252       29.8427660031
  C         7.3936672328        1.3461405019       19.8432569654
  C         9.9125960257        1.2801816501       20.5279383863
  C         9.3299449475        3.7876893839       18.3635652957
  C         9.4993638124        5.1109355843       18.2748411042
  H         1.0670317250        4.7716468082       25.6422057259
  H         2.4409859434        3.9723125551       26.4621227661
  C         1.1619363683        4.9659660962       27.8288299555
  S         5.8040008000       -2.5110839457       28.5338558205
  N         5.4388665636       -2.0046345644       30.0600559251
  C         5.1994769934        0.1324408488       31.3430861589
  H         5.0260641819        2.3419383469       31.8740212298
  H         7.0414604180        0.6241384598       20.6181201517
  H         7.7129430502        0.7308443539       18.9649120431
  C         6.2220861152        2.2508945092       19.5115495070
  H        10.2748694259        0.9703115166       19.5581036023
  H         9.7677762456        0.3554653028       21.0937771890
  C        11.2015210031        1.9784601777       21.1815752442
  H         9.2284425637        3.0529870131       17.5324745946
  C         9.7206529627        5.8640909890       16.9767864972
  H         0.8259722635        3.9023942114       28.1532118039
  H         0.2373963371        5.6281008450       27.7632621386
  C         2.1412833511        5.5015727468       28.8694286772
  C         4.9252080316       -0.5180489675       32.5669241918
  H         6.4396242048        2.9196036201       18.6387256325
  H         5.8584644676        2.8680619342       20.3313097106
  C         5.1646428186        1.2855935991       19.0187461714
  H        10.9602656997        2.1826692301       22.2416655206
  H        11.2816206248        2.9366422336       20.6750504339
  C        12.5110889511        1.2409340164       20.9516373306
  C         9.9243806137        7.2395383192       16.8542706125
  C         9.9433452235        5.1402503238       15.6577151413
  H         3.0773748569        5.0316043687       28.6407249471
  H         2.3639787415        6.5324450531       28.6309944921
  C         1.6415274267        5.2271936079       30.2907835721
  H         5.0265145872       -1.6333378673       32.5384720755
  C         4.6589171552       -0.1060384960       33.8259784524
  H         4.7989237661        0.6764051421       19.8386692436
  H         5.5549729057        0.5136079681       18.3750977707
  C         4.0357655643        1.8703129573       18.3228666694
  H        12.6455719221        0.6983831975       21.9227184521
  H        12.3060902984        0.4453077544       20.2692352047
  C        13.6991228330        2.1782146175       20.7095528373
  N         9.8716531721        8.1373930808       18.0070391268
  C        10.2479560906        7.9375807344       15.6884636332
  C        10.3503502516        5.7930047444       14.4946513710
  H        10.0246077244        4.0645427702       15.7487053809
  H         0.8283411694        5.9570705985       30.6000925847
  H         1.2466552619        4.2187611743       30.3603764978
  H         2.4420167096        5.4380239763       31.0124454412
  S         4.4308831149        1.4544986592       34.4390329454
  C         4.5864099985       -1.2266156988       34.9200743739
  H         3.7579020863        2.8027129492       18.7374722671
  H         4.3297802067        2.0579905818       17.2163479178
  C         2.7695170905        0.9879855278       18.4076309919
  H        13.2968455277        3.0968552797       20.3519375554
  H        14.4129812100        1.8388596450       19.9694667842
  C        14.3582208391        2.5410551547       22.0291842214
  S         9.8997447509        9.6509652724       17.4462171710
  N        10.2498254727        9.3275285051       15.9127632928
  C        10.4980643883        7.2987698998       14.4204696063
  H        10.6218640410        5.2531556002       13.6037827799
  C         4.1631419579        0.7021624821       36.0122750685
  N         4.3562388883       -0.6471332636       36.1197954057
  O         4.8130686526       -2.3587315840       34.6955191182
  H         1.8317764753        1.6025129611       18.2935842411
  H         2.7580516454        0.5025647207       19.4020423362
  C         2.7769659389       -0.0911496011       17.3202136869
  H        15.1651627247        3.2405589576       21.8295527989
  H        13.7217472621        2.9894554548       22.7604236403
  C        15.2247285704        1.3912374737       22.6716648305
  C        10.8317260498        8.1049678040       13.2991919546
  S         3.6107965738        1.5909124863       37.4193257044
  C         4.5286755344       -1.3336404088       37.3277496469
  H         2.2993773698        0.2663302724       16.4828074392
  H         3.8292224131       -0.3397261031       16.9388728524
  C         2.0284569720       -1.2585764855       17.9182774700
  H        15.5808710008        0.8126929553       21.8537107350
  H        14.5624604362        0.7491485391       23.2875727347
  C        16.5663260946        1.7795188848       23.4603816414
  H        10.3692804941        9.0573404500       13.3474936944
  C        11.4437398478        7.7543499166       12.1167090608
  H         3.8269927429       -0.9132016546       38.0067080664
  H         4.3041775539       -2.3897491850       37.1332861810
  C         5.9483094875       -1.2110407618       37.7486239009
  H         1.2177080453       -0.9028618370       18.4388815784
  H         2.5472504027       -1.7807676263       18.6725970759
  C         1.5883478471       -2.2268786801       16.8845293500
  H        16.3617235016        2.7489688225       23.9461078963
  H        16.7611526862        1.0535339911       24.2222679325
  C        17.7417764572        1.9964893272       22.4845492170
  S        12.3459969184        6.3262617085       11.9510363871
  C        11.5209769388        8.6658585178       10.9591598847
  H         6.0141089670       -0.4796013725       38.5551935372
  H         6.2341459887       -2.1993261811       38.0764232821
  H         6.6484710422       -1.0718107949       36.9205147960
  H         1.1517623352       -1.6771382575       16.0763023181
  H         0.9041940561       -2.9269157049       17.3738256179
  H         2.4312968711       -2.6673720148       16.4209544900
  H        18.6470952084        1.7014138594       23.0032915377
  H        18.0235927063        3.0252082806       22.1961422360
  H        17.5914715166        1.3425162070       21.6769080869
  C        12.8415532456        6.9332399727       10.3744375958
  N        12.4034258080        8.1394506122       10.0939378850
  O        10.8762642592        9.7121603054       10.8736716361
  S        13.4485133419        5.8215069296        9.1739107080
  C        12.5540998641        8.6892444824        8.7525781660
  H        12.7853349897        9.8011655230        8.6600718410
  H        13.3653844448        8.1889700599        8.2473517047
  C        11.4294430154        8.2629022405        7.7986727419
  H        11.4305335796        8.8563844505        6.8992989581
  H        11.5384457882        7.1967581083        7.5574180750
  H        10.4757459017        8.3775534614        8.2735190800
  H        -3.6201185320       14.8976360843       15.9066439801
  C        -3.5439028501       13.8173966566       16.0488798714
  H        -4.5922148696       13.4759916398       16.0767027915
  C        -2.7019533813       13.1992899341       17.2471099845
  C        -3.1435148493       13.3097399099       14.6611735439
  C        -2.5246110107       14.1512349210       18.3594342681
  H        -3.1500800983       12.3508712805       17.8352909785
  H        -1.7352726026       12.9995773705       16.8223684767
  H        -3.2666496442       12.2019917506       14.6213937393
  H        -3.7199551995       13.7630735897       13.7959034344
  H        -2.0493950304       13.5229450085       14.3958097786
  C        -1.6003156930       13.5574255789       19.4710352152
  H        -3.4317320619       14.2963290096       18.8457788253
  H        -2.2030918947       15.0385835986       17.8309761465
  C        -2.4223099526       13.1203231141       20.6971459234
  H        -1.0976917027       12.6168691616       19.0416475439
  H        -0.9664939070       14.3195105045       19.8421570143
  C        -1.4221649785       12.6007455214       21.8151908971
  H        -3.1080574551       12.3121413020       20.4029377674
  H        -3.0984405036       13.8101679826       21.1725677278
  C        -0.2729760100       13.5337872730       22.3248368176
  H        -2.0743012239       12.3285716089       22.6818050881
  H        -1.0408551565       11.6792508135       21.4093438583
  C         0.8864162671       12.8240709103       23.1307653999
  H         0.1782362514       14.1485536071       21.6044703504
  H        -0.6623392339       14.2714485010       23.0150337734
  C         1.2451128685       11.5270758063       22.3887323039
  C         0.3947463752       12.0658920748       24.3318222875
  C         2.1058286921       13.6419785295       23.3914823152
  C         1.0402136909       10.4120965294       23.1922473816
  C         1.7406922574       11.1906336443       21.1594817391
  C         0.3821780568       10.7316332035       24.3628799308
  C        -0.0555059186       12.7452971374       25.4155531094
  H         2.3711985267       14.2680182580       22.5508220807
  H         1.9345092614       14.4844127176       24.1424638624
  C         3.3871296774       12.8527941437       23.9246295343
  S         1.5606148155        8.9883526521       22.4970405094
  C         1.9294100210        9.8548942391       21.0393619952
  H         1.9097491092       12.0071605036       20.4817751566
  C        -0.0125088341       10.1160562959       25.5704807505
  H         0.1244373241       13.8018492939       25.2697644714
  C        -0.4728216876       12.1680232477       26.5948757942
  H         3.5922678960       11.9681776461       23.2601555194
  H         3.1590601496       12.5112399146       25.0042928881
  C         4.6984711781       13.7187907943       24.0201780754
  C         2.4070864247        9.1760514112       19.8128722709
  C        -0.4667046342       10.8335580531       26.6889674115
  H         0.1387573620        9.0108801188       25.6010906534
  C        -0.9032564704       12.5528024098       27.8233148819
  H         5.3375945956       13.0450930266       24.6465653491
  H         4.5175172159       14.6191478447       24.6299291828
  C         5.1681634631       14.0331014040       22.6593856474
  C         2.4709398341        7.7903632673       19.5847855371
  C         2.9242796637       10.0995989413       18.7552297572
  C        -0.8780946440       10.1633885014       27.9006987088
  C        -1.0258374186       11.4696950143       28.6565551556
  S        -1.0410658867       14.0610585344       28.6463544147
  H         5.7055585669       14.9967261877       22.6848509915
  H         4.3729268565       14.4070264012       22.0208130513
  C         5.8782094416       12.9406057874       21.9001653288
  N         2.1999627083        6.7529905925       20.4896880950
  C         2.8295313773        7.2893913045       18.3294876585
  C         3.2598954866        9.5969449172       17.5088598921
  H         3.0024352367       11.1602111191       18.8646977829
  C         0.2219102194        9.3314364113       28.5685999028
  C        -2.1391759202        9.3048952363       27.7232804899
  C        -1.4450732441       11.8847272348       29.9068810401
  C        -1.5529796114       13.2669944480       30.0721254270
  H         6.5743664446       12.4738486406       22.6093199519
  H         5.2582632451       12.1685443366       21.7104434094
  C         6.6643364678       13.2370178428       20.6208404069
  S         2.2802903703        5.3396033454       19.6638702739
  N         2.8181246960        5.8854627077       18.2517427611
  C         3.2341246690        8.1172002822       17.2601202652
  H         3.4689919609       10.3200966808       16.7354849024
  H         0.3953590904        8.4590301611       27.9144478123
  H        -0.1942809692        9.0622672720       29.4869993016
  C         1.5191026009       10.1283586634       28.9453059749
  H        -2.0865852496        8.7642525425       26.7909748642
  H        -2.3576463160        8.5012203836       28.4540617589
  C        -3.3971401153       10.1514720892       27.5670643482
  H        -1.5283593381       11.0975566007       30.6513251800
  C        -1.6625326726       13.9332589601       31.3681871843
  H         7.3780294828       12.4078937008       20.3994282262
  H         7.3977627509       14.0450815491       20.7347563759
  C         5.7849119036       13.3593456129       19.3158226757
  C         3.2614510848        7.5189193311       15.9484082449
  H         1.9989359458       10.4591629865       28.0325529451
  H         1.5126878064       11.0520907669       29.5099163218
  C         2.5750544279        9.1354584424       29.5533979512
  H        -3.2855733225       10.7292818227       26.7189133927
  H        -3.5435261225       10.9023209613       28.4283861919
  C        -4.7013773464        9.3206967474       27.4059087823
  C        -1.7177859143       15.2909124126       31.5755563738
  C        -1.7662920978       13.1393341861       32.6057043431
  H         5.0949272862       12.5403213979       19.3177616076
  H         5.2398863712       14.2815054742       19.2279698357
  C         6.6970530034       13.2900990766       18.0662436225
  H         3.1514508941        6.4524552493       15.8180787735
  C         3.6247863306        7.9606631789       14.7484831686
  H         3.0890313577        8.4714602824       28.7963500951
  H         1.9264798066        8.5835331883       30.2792266527
  C         3.6892778526        9.8362282714       30.2437140733
  H        -4.6468808067        8.6778224491       26.5457422863
  H        -4.9596155951        8.7796234207       28.3623064110
  C        -5.8310587930       10.3233830872       26.9181249241
  N        -1.4942093575       16.2184478054       30.5631565198
  C        -1.9155832214       15.9242478173       32.7610994001
  C        -1.9444508652       13.7527050533       33.8948426837
  H        -1.7581004010       12.0188427497       32.5407666231
  H         7.4238456157       12.4744885343       18.0414563953
  H         6.0688390450       13.0267310019       17.2490003204
  H         7.1044332914       14.2643842786       17.9770001510
  S         4.1053382382        9.5956561292       14.2721577571
  C         3.7309836786        6.9632174579       13.6703229036
  H         3.7985712953       10.8425232368       29.8403599414
  H         3.4041026613        9.8157837211       31.2860990558
  C         4.9826967297        9.1172160745       30.2164667699
  H        -5.6618653456       10.8034643874       25.9368388609
  H        -5.9251791664       11.1127552410       27.7180291172
  C        -7.1312194497        9.5758889743       26.8204746473
  S        -1.5879625789       17.7256183370       31.2378489956
  N        -1.9104007290       17.3111544469       32.7431976582
  C        -2.0821200321       15.2534996502       33.9453782742
  H        -2.0993331734       13.2370529608       34.8446159442
  C         4.3175077621        8.9490190255       12.6775301282
  N         4.0913086074        7.6044415828       12.5619055183
  O         3.6660042994        5.7620906926       13.8213581780
  H         5.7257633438        9.6309406308       30.8181555867
  H         5.6012568030        9.1467285683       29.3631764601
  C         4.7862402600        7.6518222283       30.6089861276
  H        -7.0158633617        8.8024903697       26.0484614168
  H        -7.1614710839        9.0628638240       27.7187363592
  C        -8.3556886920       10.5161743062       26.6576377936
  C        -2.3138630497       16.0710140359       35.1381716807
  S         4.7395915924        9.9075370196       11.2749360386
  C         4.0551273749        6.9431391748       11.2390861411
  H         3.9407609342        7.3802859743       31.2999028277
  H         4.5967135426        7.1016063391       29.6407958199
  C         5.9787772713        7.0647014864       31.3014473135
  H        -7.9276279635       11.3750966511       26.1904206921
  H        -8.5543778575       10.8147554791       27.7057167954
  C        -9.5732537099       10.0588461876       25.9548992225
  H        -2.0861776785       17.0961962230       35.0146401403
  C        -2.9975527779       15.8173042261       36.3523743981
  H         4.6889487882        7.3863790296       10.4854547659
  H         4.5146296640        5.9970721678       11.3190755549
  C         2.6210782590        6.8804727211       10.6698799735
  H         6.2330565766        7.7083296960       32.1267312748
  H         6.8919912269        7.0205928489       30.6161630935
  C         5.7418032588        5.6092117509       31.7508010757
  H       -10.1229334344        9.3262276873       26.5651500635
  H       -10.2251310371       10.8926813604       25.8157266649
  C        -9.2281969350        9.6145122280       24.5149715781
  S        -3.6138405656       14.3225717002       36.8743644316
  C        -3.1014648661       16.8826450210       37.3275602493
  H         2.4798146738        7.5754754569        9.8243978117
  H         2.5570080427        5.9118948647       10.1405406380
  H         1.8569338743        6.9441010099       11.4361011646
  H         5.3524653180        4.9966598006       30.9354866218
  H         4.9995771598        5.4520244240       32.5242303164
  H         6.6717868287        5.1702285329       31.9829517335
  H        -8.6548913467        8.6524977471       24.4607433455
  H        -8.5927607850       10.3618924828       23.9992756263
  H       -10.1281755342        9.4326901903       23.8664174610
  C        -4.0311558970       15.1371669708       38.4261735498
  N        -3.7950856979       16.4364989216       38.4440696417
  O        -2.7419132229       18.0409857464       37.1445174941
  S        -4.7150210459       14.3933719072       39.9410190950
  C        -3.8717589201       17.3441584951       39.5929842705
  H        -4.0658336966       18.3656697975       39.2563836175
  H        -4.6276937277       16.9403051923       40.2726645767
  C        -2.6151763917       17.2491037698       40.4880714888
  H        -2.7313690538       16.4663310110       41.2400688187
  H        -1.6526504261       16.8053168780       40.1324065859
  H        -2.4426945768       18.1465065916       41.0625591167
