352
 i =    53200, time =    53200.000, E =        24.6969043953
  H        12.0388252553        6.0328576564       32.4241931702
  C        10.9792866521        6.0056444302       32.3421265758
  H        10.6619448274        4.9627440894       32.2848591486
  C        10.2972416555        6.6968641287       31.1506004509
  C        10.4570834789        6.4481068102       33.6688028633
  C        10.9130784273        6.2783873543       29.7815651932
  H         9.2734098243        6.4683822192       31.2663411138
  H        10.4656466826        7.7814534545       31.3048251212
  H         9.3555679730        6.5416401860       33.5997313266
  H        10.7881524384        5.7414690412       34.3876442076
  H        11.0500832472        7.2754055948       34.0394984825
  C         9.8033403088        6.2729933893       28.7849320865
  H        11.4327995931        5.3279111572       29.8014941331
  H        11.5640959487        7.1010516357       29.4493679902
  C        10.4269374409        5.9778999062       27.3513801769
  H         9.1635587692        5.4867945793       29.1276067950
  H         9.2197479705        7.2161048493       28.7634436075
  C         9.5351106209        5.3350818687       26.3612321057
  H        11.3672315796        5.3951559759       27.4050966815
  H        10.7026200027        6.9740036234       26.9549346705
  C         8.1503560945        6.0264939960       26.2709631742
  H         9.9606990130        5.1827520215       25.4143491185
  H         9.3572119323        4.2612222979       26.6259358995
  C         7.1301536826        5.2630919550       25.4042123666
  H         7.7157912346        6.2351968108       27.2457458832
  H         8.2406900135        7.0525952045       25.9652388521
  C         6.7517662697        3.9381391988       26.1239483067
  C         7.5732280785        4.5327357540       24.1852275418
  C         5.8176572533        6.0904002574       25.2454332318
  C         7.1597472747        2.8245160990       25.4440393421
  C         6.2533657291        3.5581390673       27.3873131542
  C         7.5955806075        3.1957959789       24.1804031607
  C         8.0653718741        5.2289093799       23.0585104626
  H         5.9493599808        6.8048457712       24.4192637758
  H         5.5310726552        6.5489145243       26.2009529528
  C         4.6438254456        5.2735323066       24.7185580588
  S         6.8499355884        1.3654285781       26.2571943082
  C         6.2486817410        2.2408770701       27.6191465317
  H         5.9765186085        4.3522631252       28.0460134918
  C         7.9693083407        2.6007352559       22.9860839103
  H         8.2777627944        6.2554629617       23.2903747201
  C         8.3707097454        4.6285413672       21.8665656228
  H         4.9389253169        4.7532109065       23.7971019819
  H         4.3912992353        4.3732647706       25.3359920023
  C         3.4417711756        6.1175016136       24.4126308412
  C         5.9685585569        1.5713496188       28.9415456292
  C         8.2324052127        3.2694976141       21.8224723912
  H         7.9056595992        1.5113081424       23.0569998267
  C         8.7014160714        4.9891779924       20.6554497324
  H         2.9460911535        5.8031211204       23.4842125340
  H         3.9008432896        7.0560320109       24.1554631161
  C         2.5413641935        6.3426603420       25.6429270696
  C         5.8492257888        0.1455429030       29.1143694941
  C         5.6670402078        2.3936950816       30.1355334949
  C         8.6690091903        2.6076416626       20.6005348924
  C         9.0114293644        3.9070482598       19.8511563651
  S         9.0405758996        6.4578462216       19.8913441695
  H         1.5210749198        6.7077229962       25.5010096507
  H         3.0671382493        7.1237468078       26.1142813216
  C         2.4376925545        5.0938829050       26.5378584647
  N         6.1858952667       -0.7808719676       28.1340063253
  C         5.3705267204       -0.4115259381       30.2919862361
  C         5.1952547982        1.8494116863       31.3089266531
  H         5.7285714141        3.4734135350       30.0741004814
  C         7.5815331647        1.8008206715       19.8321566250
  C         9.9848701654        1.8115793164       20.7062881064
  C         9.4083725662        4.3021455134       18.5231475940
  C         9.4418060135        5.6617804581       18.4007704514
  H         2.1791807765        4.3134160620       25.8648064938
  H         3.3392357734        4.9811360219       27.0238666781
  C         1.3324151242        5.2902461312       27.5691389919
  S         5.9224933253       -2.2530728521       28.8154606322
  N         5.3362506694       -1.7688295293       30.2680997947
  C         5.0593229574        0.3673500599       31.4803002320
  H         5.1508022499        2.4844042258       32.2144728927
  H         7.2645858245        0.9823909581       20.4566117277
  H         7.9285523434        1.4062125102       18.9195081988
  C         6.3419427290        2.6596347487       19.3185620623
  H        10.0627647387        1.1880804041       19.7598947241
  H         9.7562284726        1.2248571281       21.5020301865
  C        11.2821090184        2.5809284199       20.9737791912
  H         9.6506754203        3.5874790031       17.7535731386
  C         9.8845711669        6.4259873353       17.1716067894
  H         0.6201657187        4.3959786861       27.4270808854
  H         0.7866680184        6.1921018491       27.3675592221
  C         2.0276111382        5.3170761760       28.9740592337
  C         4.8617776069       -0.3140006417       32.7153063659
  H         6.6866194090        3.4395194633       18.5658360594
  H         5.9585319281        3.2782379723       20.0595646476
  C         5.2032700214        1.8670923272       18.7758736827
  H        11.2551955938        2.7494750426       22.0541757747
  H        11.3999562325        3.4504333258       20.4728182731
  C        12.5419900838        1.7670694896       20.7077704208
  C         9.9687000087        7.7906578202       17.1269555999
  C        10.0854274176        5.6618673928       15.9240003564
  H         2.6277712123        4.4859512570       29.1669612367
  H         2.7344755570        6.1125987593       28.8309238061
  C         1.2504423577        5.5559639758       30.3041372844
  H         5.0234105505       -1.3918718556       32.6606011857
  C         4.6139622545        0.0843534427       34.0347900496
  H         4.9429550925        1.1067164035       19.5761266631
  H         5.5080752722        1.3502586020       17.8707936741
  C         4.0404885878        2.7213177606       18.4025862289
  H        12.6226731716        0.9259502852       21.4600474647
  H        12.3862314637        1.2614151727       19.7354664796
  C        13.7374633944        2.6431730303       20.6068106324
  N         9.6614821523        8.6443554170       18.0966961442
  C        10.2464482132        8.3958817232       15.9405845133
  C        10.4981717593        6.3254423806       14.7867988360
  H        10.0148562497        4.5873131710       15.8990024174
  H         1.9050723925        5.1647995134       31.0912965033
  H         1.0555276738        6.6202221198       30.5514021117
  H         0.4100509683        4.9049004754       30.4474175042
  S         4.2302174661        1.6969605788       34.4654487469
  C         4.5678851338       -0.8619677582       35.1411786841
  H         3.9527205677        3.4876157074       19.0913173835
  H         4.2803963292        3.2070635002       17.4939602239
  C         2.7071036576        1.8977271031       18.2709668310
  H        13.4256223451        3.4605336442       19.9400195734
  H        14.5776877342        2.2020286865       20.1281683706
  C        14.2364653796        3.2694450452       21.9480987328
  S         9.8688658963       10.1919329978       17.6168830117
  N        10.2529335885        9.7973282980       16.0929845081
  C        10.5896014220        7.7917614277       14.7604290767
  H        10.6558010512        5.8634395018       13.8204812908
  C         4.0626001566        1.0601529201       36.1577311993
  N         4.3201666941       -0.2818504918       36.3142336283
  O         4.9454309767       -2.0034153269       35.0403054403
  H         1.8129330018        2.4903567615       17.9676377494
  H         2.4254273274        1.5213449044       19.2885594468
  C         2.7634675185        0.7356467558       17.2270519158
  H        14.8128613585        4.1975769684       21.8543625040
  H        13.3942572221        3.7519188970       22.4181692347
  C        15.0356312016        2.1780184596       22.7556134448
  C        10.8501494270        8.5794900732       13.5726589783
  S         3.4583780317        2.0012549645       37.5084506003
  C         4.3366539171       -1.0632219835       37.5534775507
  H         1.8285140526        0.8877141307       16.6485422041
  H         3.6590855820        0.6106621761       16.5901329508
  C         2.5534825735       -0.6553994360       17.9475224139
  H        14.5009573899        1.1799861275       22.7118540653
  H        14.9248668942        2.3917926940       23.7798334261
  C        16.5042600869        1.9612955138       22.2387154541
  H        10.6343003212        9.6269912289       13.6277950608
  C        11.3590709159        8.3215035953       12.3304467546
  H         3.6793131863       -0.6757901057       38.3252728145
  H         4.0193181795       -2.1498387829       37.4255061556
  C         5.7783359051       -1.1410757019       38.0386862879
  H         1.5617934869       -0.6334094765       18.4332607894
  H         3.2711780507       -0.7584507892       18.6992667038
  C         2.5535568348       -1.8659433601       17.0012003391
  H        16.6983303477        0.9057727197       22.1318746392
  H        16.6073491293        2.4997618091       21.2739618276
  C        17.5383440081        2.4936737446       23.2443902800
  S        11.9380115968        6.8328408363       11.8422823732
  C        11.5206871191        9.4639032370       11.4301518395
  H         6.2668889741       -0.2361902584       38.4365295120
  H         5.7251423960       -1.8151580141       38.8851931384
  H         6.4686844720       -1.6207995055       37.2985782050
  H         2.4118365830       -1.4030367691       16.0250824733
  H         1.8542612000       -2.6318599163       17.3730923588
  H         3.5710747883       -2.2396055907       16.9000387466
  H        17.5046895311        1.8396603729       24.0856240498
  H        17.2754455045        3.4887827420       23.5791693187
  H        18.5574272524        2.4713140640       22.8752390592
  C        12.3562488511        7.6876678631       10.3197997382
  N        12.2032380830        9.0225328081       10.3253402765
  O        11.3203128673       10.6345888061       11.7609985686
  S        13.1613525673        6.9790467347        8.8835250343
  C        12.4428644621        9.9419395113        9.2085787649
  H        12.7039492169       10.9327836525        9.6208820646
  H        13.3877828694        9.5662065389        8.7519601307
  C        11.0549944157        9.9508294994        8.4115823501
  H        10.2724355529       10.4985671369        8.9286794030
  H        11.2572762987       10.4301870888        7.4746553706
  H        10.7190826261        8.9495367344        8.2407227823
  H        -1.1609760946       13.6844552359       17.4817645010
  C        -1.8216293733       14.4140413176       17.1084400088
  H        -1.1556233159       15.1468624549       16.6045766184
  C        -2.5876162096       15.1244402311       18.1725762710
  C        -2.6616560020       13.7484795476       16.0866442782
  C        -3.0226370511       14.2664042494       19.3240532288
  H        -2.1034421072       16.0588733854       18.6464466075
  H        -3.4841028118       15.6239902888       17.7025787251
  H        -2.3667336491       14.0761825006       15.0734807600
  H        -2.4378080829       12.6681467753       16.1704684940
  H        -3.7543647543       13.9639801930       16.2496207595
  C        -1.8961101285       13.8554856749       20.2417396946
  H        -3.5769094183       13.4095710904       18.9956860526
  H        -3.6635061543       14.8291508642       19.9598787989
  C        -2.4102966708       13.9046158263       21.6774466767
  H        -1.4416715240       12.9388628409       19.8748536603
  H        -1.1848213259       14.6509331634       20.1304488284
  C        -1.3820259244       13.1765504512       22.5564340736
  H        -3.4083448957       13.4650335346       21.7322954734
  H        -2.4187608404       15.0115770141       21.9888961250
  C        -0.1617783644       14.0422983998       22.9366060115
  H        -1.8483860375       12.8370006502       23.4435943247
  H        -1.0996971118       12.2688933074       21.9880169511
  C         0.9574909978       13.2291099216       23.4932888306
  H         0.2611854516       14.6939336706       22.0935974936
  H        -0.5210337914       14.6624648016       23.7697896367
  C         1.3075762415       11.9088172979       22.6513217596
  C         0.5324772703       12.4058506509       24.6841224319
  C         2.1904219626       14.1703221746       23.8535974964
  C         1.0091996430       10.7471751256       23.4321197151
  C         1.8332245829       11.5306550025       21.4541509618
  C         0.5982717960       11.0943408227       24.7409849854
  C         0.0129591800       12.9957971444       25.8557345993
  H         2.4818632851       14.6659010748       22.9766616756
  H         1.9344039728       14.9347903232       24.6211467399
  C         3.3343375797       13.2984852023       24.2963590775
  S         1.2691064802        9.2800719607       22.5359602458
  C         1.9274939038       10.1519212649       21.2253578872
  H         2.0380115918       12.3095750815       20.7227155751
  C         0.2543224252       10.4197551208       25.8498955629
  H        -0.0624178242       14.0648611499       25.8496738033
  C        -0.2447875197       12.2516619803       26.9788108390
  H         3.5740541153       12.5639479212       23.5619768481
  H         3.2428498134       12.8469690144       25.2386179659
  C         4.6310580500       14.1934164791       24.3167250925
  C         2.3964529841        9.4573819887       20.0330884570
  C        -0.1499348605       10.9448024035       27.0499621586
  H         0.3683889247        9.3637096270       25.8864360086
  C        -0.7131813168       12.6080131515       28.2062978885
  H         5.3255655189       13.9464103637       25.0237927291
  H         4.4176846702       15.2143020503       24.6685399531
  C         5.2706252645       14.1797244617       22.8976309895
  C         2.3576998654        8.0688178889       19.7229311563
  C         2.7982113781       10.3517881118       18.9112547482
  C        -0.5597512470       10.1958155256       28.2742565556
  C        -0.8511960030       11.4951821263       29.0336033118
  S        -1.0538132192       14.1381445848       28.9932459959
  H         5.5807912465       15.1460802300       22.5640486029
  H         4.5129228969       13.7548108229       22.2069128601
  C         6.4889953377       13.3092153401       22.9683117983
  N         2.0290875757        6.9868251289       20.6013966731
  C         2.7063230401        7.6215243405       18.5024601188
  C         3.0183289568        9.8151153015       17.6460739176
  H         2.8999659470       11.3998848233       18.9799260153
  C         0.5232776928        9.3454121403       28.8503072515
  C        -1.9069810624        9.3285311377       28.1787169691
  C        -1.3323493672       11.8745655178       30.3095426347
  C        -1.4946079570       13.3023292428       30.4649583192
  H         7.0788064386       13.4460061755       23.8192458752
  H         6.1930214996       12.2872222840       22.9553818926
  C         7.5978415256       13.5359074541       21.9640167349
  S         2.2485166765        5.5906917803       19.7971854251
  N         2.6157480367        6.2113275499       18.3424033823
  C         2.9961404810        8.3964550198       17.3429078875
  H         3.4473165673       10.5003976981       16.9193829017
  H         0.8276827690        8.5559037323       28.1518862935
  H         0.2494044766        8.9650655156       29.8392444914
  C         1.8410166461       10.1097179876       29.0800018895
  H        -1.7239233040        8.6106240333       27.3114715756
  H        -2.0149722485        8.6984381707       29.0889349748
  C        -3.2391488522       10.0884920351       28.0537700874
  H        -1.5585336895       11.0916739010       30.9969802180
  C        -1.8077864202       14.0787541868       31.7273480256
  H         8.4400073972       12.8438221599       22.1686588761
  H         7.9859585243       14.5163293358       21.9729410097
  C         7.2326431246       13.0443446298       20.6425292219
  C         3.2750773435        7.7641157313       16.1293240783
  H         2.2062310035       10.4193638018       28.1081272178
  H         1.6720431414       10.9537476668       29.7502292731
  C         2.9155821749        9.3132889090       29.7580711755
  H        -3.1773524053       11.0570901246       27.5085585565
  H        -3.5977736880       10.4626744909       29.0318448692
  C        -4.2977705105        9.2782297673       27.3664585544
  C        -1.7618074979       15.4782879120       31.8855759390
  C        -2.0925664053       13.3707791006       32.9853970712
  H         8.0591943807       12.4421188096       20.2352673493
  H         6.4132437656       12.4335168945       20.8652152588
  C         6.8099095193       14.0930345545       19.5708219957
  H         3.2072180686        6.6942794169       16.1379489078
  C         3.6353166683        8.2286870136       14.8855789679
  H         3.4754510054        8.7358875202       28.9917173232
  H         2.4986233455        8.6177015024       30.4574518749
  C         3.8514035815       10.3272498010       30.3609712551
  H        -3.9347024153        8.9305639361       26.4185683263
  H        -4.5027783203        8.4466644376       27.9951775421
  C        -5.5598040292       10.1157811248       27.1627939695
  N        -1.5067812574       16.4020026160       30.8724699490
  C        -2.0166720942       16.0837683906       33.1096454515
  C        -2.3565697331       13.9852625636       34.2033712443
  H        -2.0575023969       12.2836961153       33.0230900883
  H         6.0074026605       14.7467993327       19.9059026287
  H         7.6354719607       14.6870570091       19.2779489681
  H         6.4818644254       13.5312635262       18.7460398220
  S         3.9744720003        9.9358345273       14.4493512922
  C         3.7088023147        7.2172419221       13.7458451980
  H         4.0450318254       11.0508353368       29.5555770778
  H         3.4546204692       10.7807844071       31.2672238357
  C         5.2554768379        9.8457989953       30.7392704464
  H        -5.4679636632       11.0168934071       27.7616426555
  H        -6.3950411372        9.5092490752       27.5277528030
  C        -5.8253164352       10.3952137168       25.6978000976
  S        -1.4801376444       17.9064196573       31.5615147067
  N        -2.0943869821       17.4589898767       32.9973115739
  C        -2.2624221716       15.4362468249       34.2890628318
  H        -2.7023675250       13.4082863837       35.0112550102
  C         4.2550693720        9.2446894656       12.8391955003
  N         4.1294480623        7.8930250110       12.6707813638
  O         3.5137441650        6.0385310791       13.9459174590
  H         5.7026312435       10.8013065852       31.1258019635
  H         5.7057632466        9.5451578265       29.8173333027
  C         5.3455177068        8.6816008049       31.7003166688
  H        -5.0243739905       11.0546386992       25.3968530802
  H        -5.7600996103        9.4111283408       25.1975216059
  C        -7.1896072486       11.0699030186       25.6132838370
  C        -2.5807060885       16.2057133899       35.4335594110
  S         4.7534223598       10.1984851758       11.4537885647
  C         4.2836684086        7.2191691198       11.4293621096
  H         5.9828388670        8.9297322278       32.5047268856
  H         4.3798739743        8.5161687471       32.1769941954
  C         5.8816447024        7.4362314777       30.9996764663
  H        -7.2632112702       11.6264982112       24.6768195932
  H        -7.3579550231       11.7604922063       26.4085829338
  C        -8.2878503406        9.9901855077       25.5619766201
  H        -2.2778520523       17.3036352690       35.3877183746
  C        -3.1425787627       15.8442962887       36.6444602228
  H         5.1395357266        7.5135985024       10.8972326680
  H         4.5606858416        6.1924278195       11.5763816293
  C         2.8989933726        7.3154060153       10.6460281360
  H         6.8090512958        7.5917813091       30.5123405329
  H         5.2104695199        7.0857253112       30.1628734805
  C         6.1385308766        6.3661603188       32.0207240901
  H        -8.0690664891        9.2640010974       24.8443408319
  H        -8.4216417518        9.4409019722       26.4606837423
  C        -9.6944285264       10.5565429679       25.3025513670
  S        -3.5994960841       14.2479845161       37.1939117418
  C        -3.3393432783       16.9335303335       37.6705183340
  H         3.2105691807        7.8164469371        9.7788531137
  H         2.5861145059        6.2928297051       10.4851950065
  H         2.1758050323        7.9110589632       11.2240445427
  H         7.2150057833        6.3045267029       32.3026191433
  H         5.9557434765        5.3694077023       31.5238054995
  H         5.6235258669        6.4660195903       32.9546743149
  H        -9.8348528840       11.3733875038       25.9743956303
  H       -10.4421779519        9.8042872665       25.4493000944
  H        -9.7757502080       10.8564947863       24.2527948374
  C        -4.1294111397       15.0770038368       38.6210289465
  N        -4.0155374280       16.4251644206       38.6899510961
  O        -2.9202483251       18.1167544135       37.5222164921
  S        -4.9048924853       14.2874150818       40.0573877856
  C        -4.1547521221       17.2065138630       39.9116435649
  H        -4.1543296248       18.3111979098       39.7018796364
  H        -5.0186814742       16.8758366209       40.5650664800
  C        -2.8707475822       16.9603421768       40.7686576687
  H        -3.0389046242       17.0633603613       41.7979743698
  H        -2.5575637548       15.9423319832       40.6847463484
  H        -2.1258917492       17.6125948871       40.4413661452
