352
 i =    94000, time =    94000.000, E =        25.2372848345
  H        10.1836720967        7.3011853162       31.9189362996
  C        11.1343498948        6.7499153420       32.2229516585
  H        11.9105277820        7.5076432263       32.4687670500
  C        11.8291986094        5.9186743058       31.1948609499
  C        10.8480557406        5.8675919926       33.4907574668
  C        10.9251067577        5.0574274915       30.3832511957
  H        12.5000372450        6.5458002069       30.6297309793
  H        12.4461477628        5.1998969747       31.7618156406
  H        11.7980153643        5.6656392341       34.0513684219
  H        10.1790225880        6.3923091683       34.2749470817
  H        10.3774730851        4.9116869046       33.2500159123
  C        10.2342453965        5.9034434157       29.2244789313
  H        10.2160153487        4.5233202482       30.9694392545
  H        11.6260250329        4.3332303945       29.9920026976
  C        11.0326252421        5.7700412144       27.9347721206
  H         9.1752730644        5.5703272787       29.1687625244
  H        10.1386899195        6.9252316871       29.5553517866
  C        10.0980531722        5.1178426629       26.8827170329
  H        12.0242557717        5.3384035355       28.0466289726
  H        11.2014801900        6.8068412809       27.6003160473
  C         8.9428365229        6.0387153164       26.4115258799
  H        10.7506050393        4.7995497807       26.1780594350
  H         9.6694735884        4.2354674726       27.3785031205
  C         7.8026150385        5.3213736273       25.5975048949
  H         8.4545302351        6.6641218855       27.1814269216
  H         9.3264584577        6.8789387605       25.7970889711
  C         7.4349616387        3.9621229845       26.2283531111
  C         8.1692258015        4.6159450921       24.2980848475
  C         6.5201592481        6.1988006041       25.3420074226
  C         7.5354080847        2.8971517679       25.3312652894
  C         6.8390994720        3.5725336444       27.4022481859
  C         8.0170231225        3.2747174159       24.1582599166
  C         8.6669308785        5.2730731423       23.1382660879
  H         5.9212110175        5.5243665543       24.6682570580
  H         6.5806236652        6.9984225018       24.7152281816
  C         5.6102282839        6.5530811403       26.5363570641
  S         7.0533447235        1.3950613470       26.0212674861
  C         6.6272393775        2.2302069801       27.4786825351
  H         6.6973942149        4.3317268860       28.1521330650
  C         8.4731815318        2.7072502697       22.9856201218
  H         8.6973156717        6.3923034099       23.2299420699
  C         9.1547478195        4.6876463950       22.0062623716
  H         5.6172073788        5.9284826490       27.3802867805
  H         6.0960196942        7.4964730938       26.9120685813
  C         4.1510527856        6.7812666636       26.0229438451
  C         6.1929199112        1.4722136911       28.7525405138
  C         9.0665261283        3.3622545169       21.8889233938
  H         8.3031961597        1.6776657635       22.8371515783
  C         9.6236737411        5.1170565872       20.8183809891
  H         4.0007867651        5.9425234112       25.4045566236
  H         4.0850856980        7.7092349545       25.2784413235
  C         3.0835673051        6.9402682639       27.0924701761
  C         6.2490313984        0.0674725443       28.9035158881
  C         5.9767244845        2.2139396895       30.0544566825
  C         9.5256644882        2.6531698918       20.6107396951
  C         9.7796806513        4.0718693399       19.9471768465
  S         9.8585286350        6.6556745286       20.0395566351
  H         2.1513363633        7.3160756723       26.7090093242
  H         3.4612473831        7.8021211777       27.7185750019
  C         2.6973805909        5.7122535596       28.0098768158
  N         6.6963953317       -0.8491369275       27.8634214369
  C         5.8810122729       -0.6536619418       30.0196477119
  C         5.6794860944        1.4931198893       31.2193140641
  H         5.9801196356        3.3026136956       30.0516113888
  C         8.3898566831        1.8852833408       19.8589033632
  C        10.8266605319        1.7667537251       20.7320168295
  C        10.1484227080        4.5111995349       18.6462782684
  C        10.1658251197        5.8649831847       18.4940812666
  H         2.7222443978        4.8314906815       27.3560333152
  H         3.4432626976        5.6306761464       28.7429958224
  C         1.2329524104        5.9072028542       28.6371909507
  S         6.7858502012       -2.3471548630       28.4039548517
  N         6.0861363694       -2.0284321003       29.8966187567
  C         5.6297805179        0.0135998389       31.2266979604
  H         5.6392128176        2.0015019152       32.1780278635
  H         8.0864321958        1.0413822063       20.4616587403
  H         8.6643529158        1.4615974701       18.9184285358
  C         7.1039369702        2.7027373065       19.5390780173
  H        10.8871682524        1.1437596181       19.8722248044
  H        10.6127829833        1.1199547780       21.5808273606
  C        11.9967350432        2.5407859107       21.2731497669
  H        10.2105683269        3.7888877344       17.8685610005
  C        10.3908635734        6.6722126844       17.2867808913
  H         0.8153261539        4.9145707518       28.5011875885
  H         0.5121748932        6.5286683203       28.0121364109
  C         1.3008961994        6.4998282247       30.0517704371
  C         5.3448499648       -0.7591568003       32.4051652820
  H         7.2686685798        3.6098173082       18.8523223863
  H         6.8594698404        3.2108148324       20.4760298811
  C         5.9832672319        1.8094407857       19.0568593204
  H        11.7657079610        3.1620640246       22.1701187453
  H        12.2636594464        3.3009454142       20.4923630688
  C        13.2569142505        1.7013963690       21.5992478905
  C        10.4943553887        8.1269283291       17.2700333137
  C        10.3997418461        5.9877330245       15.9385269944
  H         1.9901805207        7.3456885452       29.9742702828
  H         0.3204712119        6.8881826204       30.3368346221
  C         1.8812426826        5.6047037759       31.1480498265
  H         5.5063356740       -1.7649916368       32.1843920204
  C         5.0337202231       -0.4007042251       33.7138582440
  H         5.7741868702        1.0972344997       19.8816001765
  H         6.4239327379        1.1857154706       18.2049657791
  C         4.7700001719        2.5747958660       18.6240855481
  H        12.8539972098        1.0656662575       22.3164374471
  H        13.5852282711        1.1192143696       20.7075576831
  C        14.3990455914        2.6726155082       22.0884964214
  N        10.3442125393        8.9678946140       18.3773727917
  C        10.6436257742        8.8423068512       16.0732956535
  C        10.6741938547        6.7281051326       14.8029983975
  H        10.2494106795        4.8819603789       15.8978337370
  H         1.5579955240        5.9907023118       32.0496133534
  H         1.4818794169        4.6059650906       31.0001286881
  H         2.9616897879        5.4534404143       31.0106053368
  S         4.6265654380        1.1262312018       34.2936082451
  C         5.1177190879       -1.3879433146       34.7455624484
  H         4.4419721871        3.3309552931       19.3448381938
  H         4.9409444145        3.0972928488       17.7127975484
  C         3.6256204400        1.6422587812       18.3327653326
  H        13.9899058585        3.1524409251       22.9953790012
  H        14.6594098420        3.4070148760       21.4149711272
  C        15.6669054919        1.9539632303       22.5934932099
  S        10.3513272802       10.4845770902       17.8964685334
  N        10.6087003089       10.2293375637       16.2801846593
  C        10.8257955770        8.1855159537       14.8237929004
  H        10.7220133071        6.1820442085       13.8495205954
  C         4.3425997121        0.3089973055       35.8450563993
  N         4.5918989697       -0.9907830279       35.9047877692
  O         5.4885311328       -2.5266422671       34.4725471575
  H         2.8096414530        2.2844473585       17.9059007160
  H         3.3685313152        1.2202351593       19.2752919239
  C         4.0842188626        0.3984038535       17.5235259304
  H        15.3083880504        1.0787856190       23.1125140035
  H        16.3231249990        1.6525772144       21.7682788554
  C        16.5305257314        2.7633578028       23.6156566958
  C        11.1616717313        9.0060976438       13.6353347983
  S         4.0992007083        1.1786665685       37.3489470668
  C         4.5818770071       -1.7624895221       37.0904408792
  H         4.7617258567        0.6254873912       16.6464346690
  H         4.5572736638       -0.2919027128       18.1622638289
  C         2.7743415156       -0.3436968927       17.0716753165
  H        15.9225455697        2.9781048250       24.4919987771
  H        16.7939514775        3.7707085034       23.3206629745
  C        17.7116293581        1.9050198882       24.0798493200
  H        10.9666103207       10.0333615286       13.7446396952
  C        11.5778208533        8.6836008879       12.4079365604
  H         3.6977681790       -1.5371060000       37.7815358837
  H         4.5018285489       -2.7593875443       36.7995668130
  C         5.9509217714       -1.7374025954       37.8274880350
  H         2.4278749886       -0.2031511149       16.0255666827
  H         1.9362951652        0.1488099229       17.6009782719
  C         2.6604093160       -1.7354518964       17.4470878187
  H        18.1471402440        2.1859648252       25.0400737500
  H        17.2912039843        0.8633802120       24.2099571855
  C        18.7981458727        1.8469411374       23.0911359427
  S        12.1845056114        7.1227161270       11.9529283978
  C        11.6562388156        9.8105859067       11.4197560498
  H         6.5793897607       -1.0046235587       37.3391085117
  H         5.8630885350       -1.5571290618       38.8803080811
  H         6.4334533760       -2.7373888050       37.6786287820
  H         3.1155072388       -1.8529694194       18.4819873587
  H         3.2600631923       -2.2867970814       16.7086541843
  H         1.6678929147       -2.1680846637       17.3749099601
  H        19.7440996907        1.5673110042       23.5438981410
  H        18.9242953918        2.8420663285       22.6048947851
  H        18.6010824645        1.1732106637       22.2386280633
  C        12.7013307576        8.0156598304       10.5226057466
  N        12.2437324849        9.2731567201       10.3965742758
  O        11.1664157305       10.9188154294       11.4587740311
  S        13.2167558254        7.1414345470        9.0626483902
  C        12.2277114806       10.0212998874        9.1269872067
  H        12.5691423204       11.0323071550        9.3215230654
  H        12.9667684208        9.5940813378        8.4329108081
  C        10.8002540234        9.8050094064        8.4627388078
  H        10.8833709942       10.2454827339        7.4999816851
  H        10.6419161724        8.8287458901        8.1006714791
  H         9.9999422821       10.2659262764        9.0776312771
  H        -3.2271882426       14.2252909831       16.4590225815
  C        -2.2719103762       13.8496085890       16.4112253938
  H        -2.3213529901       12.7426159114       16.4782623629
  C        -1.3813479503       14.2543189844       17.5473108866
  C        -1.6591659533       14.0176567226       15.0702481146
  C        -1.9294550254       13.5166211699       18.8046147588
  H        -0.2926928826       13.9859183503       17.4295404520
  H        -1.3251031615       15.3699380731       17.6156466398
  H        -1.7895027473       13.0520913667       14.5490508161
  H        -2.1570863972       14.6996823724       14.4484257870
  H        -0.5583181406       14.2171938158       15.1245621745
  C        -0.9844860429       13.8950702901       19.9436386430
  H        -2.1866519980       12.5183301222       18.8492556205
  H        -2.7779627812       14.1254673953       19.1852381936
  C        -1.6345681320       13.7950052723       21.3322892323
  H        -0.1990885452       13.2359042355       19.9056732416
  H        -0.6740733893       14.9149203388       19.6894204224
  C        -0.7541595702       13.1364417302       22.3433872618
  H        -2.5372096160       13.2396673367       21.1015557211
  H        -1.9468220995       14.7828490275       21.7894593502
  C         0.4933495017       14.0183311746       22.5551846705
  H        -1.2235039498       13.0673992653       23.3088969141
  H        -0.5299305129       12.1092155470       22.1361983350
  C         1.5766090646       13.2310333765       23.3188974745
  H         0.9495044875       14.3311692811       21.6142471856
  H         0.3115744130       14.9686751368       23.1638032203
  C         1.9744940230       11.8268121508       22.6204986842
  C         1.1401713422       12.5467261128       24.5272500776
  C         2.7077000659       14.2786087438       23.5389797728
  C         1.6622000125       10.7529483015       23.4636078505
  C         2.4960917830       11.4132655558       21.4186306132
  C         1.1912843607       11.2105421811       24.6742489231
  C         0.5282707373       13.2237482822       25.5790210368
  H         2.5290529970       15.1340244392       22.8494221140
  H         2.6826979032       14.6649667125       24.4822009811
  C         4.1331213227       13.8364537639       23.2343315155
  S         1.8699070483        9.2457609837       22.6633713798
  C         2.5780769758       10.0308523345       21.2876519345
  H         2.7770538182       12.2273003399       20.7406359804
  C         0.6272615888       10.5978870295       25.7177689984
  H         0.3192446463       14.3011383914       25.4200997956
  C         0.0252818311       12.6082503091       26.7164320301
  H         4.2741410027       13.5326515387       22.1627874779
  H         4.4009032233       12.8519706520       23.7013689544
  C         5.2370875888       14.7903045526       23.6523735676
  C         2.9278727772        9.2976624593       19.9815974490
  C         0.1474819249       11.2757647653       26.8216373769
  H         0.6502986490        9.5289176448       25.6523337370
  C        -0.4309707081       12.9134081860       27.9618982273
  H         5.8847779846       14.2012338665       24.2097027310
  H         4.8901774991       15.6011382957       24.2737985478
  C         5.9610572232       15.3166544209       22.4443226202
  C         3.0139938035        7.9254970023       19.7742781682
  C         3.0822583119       10.0948152612       18.7486662843
  C        -0.2863442726       10.5105438058       28.0032455119
  C        -0.6360522975       11.8034255108       28.7718330747
  S        -0.5579669126       14.3783752226       28.8707909303
  H         6.4927573371       16.2409362092       22.7399529361
  H         5.2909095604       15.7096265630       21.6391354630
  C         7.0177418848       14.3935192355       21.8391493627
  N         2.8378782434        6.9732692746       20.8051048748
  C         3.3096133547        7.3526450661       18.5846618714
  C         3.3034986035        9.5400243181       17.5320003598
  H         2.9978584199       11.1884515630       18.7835264314
  C         0.8290829334        9.8190476515       28.8150210517
  C        -1.4626351321        9.5262534053       27.6433070158
  C        -1.2029644195       12.0941196699       30.0300812461
  C        -1.1953087587       13.4516572053       30.2755733980
  H         7.8980766591       15.0419148634       21.8600015995
  H         7.2934641754       13.4840333118       22.4081670754
  C         6.7170439269       14.0419008885       20.4128204885
  S         3.0088637346        5.5225582636       20.2068447981
  N         3.4212633209        5.9814182476       18.7048025413
  C         3.4845316773        8.1023620799       17.3543480388
  H         3.2566602527       10.2274742250       16.6449601366
  H         1.0626893963        8.9456233178       28.1824374235
  H         0.4007656439        9.4303090968       29.7206348807
  C         2.0832742483       10.6343831616       29.1372782636
  H        -1.1018328803        8.8492784194       26.9061310797
  H        -1.6512060367        8.8424219739       28.4762740925
  C        -2.7868209358       10.1809657482       27.2047516931
  H        -1.3846386082       11.2449882078       30.6506322137
  C        -1.4537269752       14.2082568374       31.5574232188
  H         6.1744477435       14.7134109647       19.7627897807
  H         6.0304966120       13.2050963916       20.4558067478
  C         8.0126020379       13.7053007006       19.5862844984
  C         3.7243733378        7.3591009953       16.1777921257
  H         2.6132036747       10.8507559135       28.2431782028
  H         1.9351036286       11.6350492323       29.6216370135
  C         3.1369346594        9.9590801635       29.9681317365
  H        -2.6296193415       10.8031459179       26.3769639634
  H        -2.9455638029       10.9028231974       27.9937677363
  C        -3.9873639525        9.2313579422       27.2600250777
  C        -1.4076370001       15.6063752445       31.7620120789
  C        -1.8220236020       13.3089641228       32.6855007112
  H         8.7681916784       14.4990810658       19.6483471944
  H         8.4078930312       12.7921116429       19.9584357896
  C         7.6955509329       13.4146752111       18.0974611794
  H         3.6632537726        6.2999553792       16.3728568068
  C         4.0449497184        7.7091849854       14.8928081987
  H         3.4873291298        9.0372386483       29.5144195400
  H         2.6459704711        9.6742197543       30.9287800651
  C         4.3030891973       10.8843869932       30.2288390043
  H        -3.7996408038        8.4029337294       26.5703264552
  H        -4.0049504098        8.7245590958       28.2268630330
  C        -5.1937751845       10.0713115396       26.9245021841
  N        -1.0876321855       16.6264461826       30.8474151884
  C        -1.6549490822       16.0993878226       33.0530570171
  C        -1.9408427799       13.7931733598       33.9857727378
  H        -2.0407349245       12.2468133406       32.5165373868
  H         8.4476273896       12.7409532227       17.7454006750
  H         6.7983268368       12.7885894219       17.9656469861
  H         7.7098785493       14.3466808222       17.5175780810
  S         4.2650751984        9.3044724497       14.3216102876
  C         4.1221798714        6.5559761545       13.9554508340
  H         4.8370899366       11.1476513167       29.2833223027
  H         3.9742700158       11.7916020203       30.6859335350
  C         5.3874270235       10.2053691319       31.1494557883
  H        -5.1217650968       10.8989575106       27.5585186838
  H        -6.0623756336        9.4564378389       27.1198512552
  C        -5.3403671735       10.5588249582       25.4790198964
  S        -1.1793051393       18.0551996428       31.6170852810
  N        -1.6488625879       17.5025351471       33.0624559532
  C        -2.0362120335       15.3147566085       34.1708475897
  H        -2.1146967446       13.1123408060       34.8035812918
  C         4.2593893959        8.5259639268       12.7608597809
  N         4.3908593619        7.1539633824       12.7372095802
  O         3.9664299477        5.3951804262       14.2672615281
  H         5.0349958910        9.2849814884       31.6434444721
  H         5.5643367676       10.8523682239       32.0134368463
  C         6.7125432911        9.8860944726       30.4581698560
  H        -4.5027213162       11.2173780100       25.1754441985
  H        -5.3333984256        9.7624825684       24.7200005803
  C        -6.5846180845       11.4282057725       25.3292825869
  C        -2.3414072351       15.9851192235       35.3936625081
  S         4.7514935292        9.2055968546       11.1944744109
  C         4.3323901246        6.3490938238       11.5274308372
  H         6.8068294842       10.5406747313       29.5798305476
  H         7.6266110578       10.0665332914       31.0130936704
  C         6.6360545311        8.4773363359       29.8574865607
  H        -6.5126221113       11.7559456858       24.3166576651
  H        -6.3634958979       12.3363802046       25.9412823948
  C        -7.9401359502       10.8405070586       25.8559231354
  H        -2.0460681555       17.0154417926       35.3925172502
  C        -2.9300716102       15.6358777382       36.6113556337
  H         5.1234181833        6.6067605219       10.7995582502
  H         4.6024315684        5.2705475455       11.9392118896
  C         2.9054657718        6.3362609627       10.8633121993
  H         7.2824820769        8.3465329713       29.0295623573
  H         5.7320014321        8.3110500547       29.4226820020
  C         7.0207246925        7.2756353851       30.7607438905
  H        -7.7373307239       10.5906866766       26.8678763024
  H        -8.7296325534       11.5459818606       25.7910262701
  C        -8.4691292662        9.6040103351       25.0482971261
  S        -3.5079586739       14.0035476604       37.0218415389
  C        -3.0341045488       16.6270628493       37.6956533230
  H         2.6474500578        5.4076320552       10.3162560605
  H         2.1517146982        6.5756507144       11.5917863332
  H         2.8746811822        7.0871874290       10.0562101669
  H         6.3970124753        7.1193258947       31.6318852782
  H         8.1007438516        7.3270838406       31.0790459181
  H         6.8801160981        6.4169545162       30.1522130889
  H        -7.7271588708        8.8128358789       25.1119370783
  H        -8.4506158177        9.8494284532       24.0235546635
  H        -9.4754495901        9.2315101712       25.2076247703
  C        -3.9380371952       14.7418275004       38.5488820694
  N        -3.6194473818       16.0619590809       38.7202420014
  O        -2.4222866405       17.6658147233       37.7128133644
  S        -4.6844574359       13.8445618730       39.8922800244
  C        -3.7436217444       16.8272971331       39.9702252901
  H        -3.8288492465       17.8821695440       39.7945687014
  H        -4.5355904736       16.4081377367       40.6285315823
  C        -2.4154631043       16.6423934381       40.7056551451
  H        -2.3213012517       17.4542615994       41.3653695396
  H        -2.3637314918       15.7206848971       41.2516868839
  H        -1.4509932437       16.7752975195       40.1223600130
