352
 i =    95000, time =    95000.000, E =        25.0879913663
  H        10.3446070697        5.1431963577       31.7411386823
  C        10.3768807174        6.1256133733       32.2224655580
  H         9.4140296534        6.4143110991       32.5654345356
  C        11.0218653596        7.1853589160       31.3176642452
  C        11.1454930562        6.0746749390       33.5296640345
  C        11.5760578105        6.5770568431       30.0254559934
  H        10.3621372149        7.9693231172       31.0010626358
  H        11.8211895491        7.6996279163       31.8177811501
  H        11.7071425967        7.0004446805       33.7325944173
  H        10.4704612604        5.9077023467       34.4343240380
  H        11.9724288780        5.3400077067       33.5091034231
  C        10.3791707456        6.3292152925       29.0975561901
  H        12.0843411938        5.6992477781       30.3569745832
  H        12.1689606190        7.2020969969       29.3532993417
  C        10.8719997130        6.0724986514       27.6149168865
  H         9.8467228340        5.4195205492       29.3160536815
  H         9.6596934155        7.1164144496       29.1687380387
  C         9.8593704744        5.3934480987       26.7432547482
  H        11.8379609153        5.6138163458       27.5259821305
  H        10.9293366756        6.9826744487       27.0802566954
  C         8.6543793314        6.2805551016       26.3951950379
  H        10.3113992494        5.0392561485       25.8280356567
  H         9.4951858363        4.5122747667       27.2461615185
  C         7.5369062494        5.5738091167       25.5520834158
  H         8.2444551968        6.5769529221       27.3868881455
  H         8.9217747118        7.2229882490       25.9167209076
  C         7.0961830729        4.2601525037       26.2695362419
  C         7.9211969551        4.8452417827       24.3419819787
  C         6.4423166143        6.4877825722       25.0999051224
  C         7.2301996508        3.1300102380       25.4730248561
  C         6.6455928061        3.8639649421       27.5686173600
  C         7.7171364582        3.4951809779       24.2866275152
  C         8.4138401486        5.5554484359       23.1999442112
  H         5.9640612200        6.1995719844       24.0929404277
  H         6.9147472907        7.3787830099       24.9184273955
  C         5.3309516411        6.8137964251       26.0367794336
  S         6.7852745208        1.6215974910       26.1821163792
  C         6.4411390190        2.4982514693       27.6461409051
  H         6.5122893818        4.6333529878       28.3080493318
  C         8.1118687235        2.9083179365       23.1092083206
  H         8.4973519038        6.6315577464       23.2988466853
  C         8.7967561883        4.8961039055       22.0715866410
  H         5.6900414133        6.5024901560       27.0316235345
  H         5.2680710665        7.8654934348       26.1564214740
  C         4.0542314326        6.2777867563       25.5891047498
  C         6.1697146894        1.7372858248       28.8803664076
  C         8.6586881383        3.5785651592       22.0194657302
  H         7.9891868894        1.8061748405       22.9692608630
  C         9.2043150426        5.2245968935       20.8256321543
  H         4.2394122430        5.2622305805       25.4216582217
  H         3.7364221881        6.8197939429       24.6919562128
  C         2.9533392301        6.4502708316       26.6526346196
  C         6.1317381929        0.2646297623       29.0694317623
  C         5.7807494458        2.5817343428       30.0715749034
  C         8.9453075695        2.8229094363       20.7434687141
  C         9.3539718075        4.1165250333       19.9903504263
  S         9.5288240696        6.6663445463       19.9574270474
  H         2.2551742802        7.1346889389       26.0928831740
  H         3.4287944069        7.0037319677       27.4294260058
  C         2.2046715368        5.2102969506       27.0582590057
  N         6.3221849880       -0.7183185058       28.0526852571
  C         5.9745768868       -0.3618905857       30.2938184432
  C         5.5713930007        1.9258105933       31.2957483609
  H         5.5940679108        3.6331403696       30.0979851910
  C         7.6673130866        2.0610055471       20.1421353181
  C        10.0994811861        1.9127809566       20.8504078057
  C         9.7392237285        4.4406741962       18.6515060331
  C         9.8222579191        5.7873666711       18.4598468927
  H         1.3163518822        5.1200518877       26.4113544314
  H         2.6892888033        4.2597293228       26.7950166074
  C         1.6417814793        5.3994024921       28.4539903033
  S         6.2109580225       -2.1858105661       28.7479071352
  N         6.0323972222       -1.7716943099       30.2321399021
  C         5.6600314675        0.3955908650       31.4697449590
  H         5.3125052711        2.4682132756       32.1877504849
  H         7.3281979752        1.2667858332       20.8439490055
  H         7.9465227456        1.3102884638       19.4778438710
  C         6.6585434576        2.8896522972       19.3724886479
  H        10.4402705618        1.5986741637       19.9103970099
  H         9.8334077768        0.9960410530       21.4036493324
  C        11.3353752467        2.5977510510       21.4266138404
  H        10.0251500101        3.6805233705       17.9781607336
  C        10.2303302105        6.4986402894       17.2391417877
  H         0.8507437861        4.6247253571       28.6290715442
  H         1.2076342959        6.3626473305       28.6190020761
  C         2.6826933401        5.1073768452       29.5095245625
  C         5.5536619947       -0.4052801270       32.7094723509
  H         7.0055936646        3.5704768666       18.5972632651
  H         6.0463626170        3.4880688846       20.1161294405
  C         5.6384053931        1.9312087292       18.6888353837
  H        11.2739866971        3.1345830508       22.4305897007
  H        11.6390069185        3.4128492309       20.7287323066
  C        12.4688224808        1.6474045604       21.7392685021
  C        10.2612221744        7.9106725096       17.0704517382
  C        10.4533705202        5.7308376456       15.9758125599
  H         3.0948867050        4.0920457319       29.2562860116
  H         3.4249354550        5.8662717238       29.4729187391
  C         2.1084536474        5.0194013554       31.0276046060
  H         5.9027838885       -1.4650502680       32.7339107421
  C         5.1023367280       -0.0557191821       33.9274426001
  H         5.1436309308        1.3494714893       19.4876887108
  H         6.0783331419        1.0885192705       18.2656073086
  C         4.4667549861        2.4872412093       17.8825495034
  H        12.3045701441        1.0258435655       22.5879767235
  H        12.6846149183        0.9568946677       20.9359908866
  C        13.7044980621        2.5670461215       21.8018750970
  N        10.0717279378        8.8687699978       18.1340567653
  C        10.5666910772        8.5708574148       15.8877823137
  C        10.8603037876        6.4388650922       14.8092616598
  H        10.5784958132        4.7026729451       16.0077452414
  H         1.2301289070        4.2972008676       30.9991571713
  H         2.7774273707        4.4599843787       31.6396928454
  H         1.8010147738        5.9656504693       31.3183905784
  S         4.7739509326        1.5639615907       34.6169561583
  C         5.1453559103       -1.1864934188       34.9540322978
  H         4.2123400612        3.4085959080       18.4143734069
  H         4.8706537987        2.6761167761       16.8968528068
  C         3.2568443225        1.6675303534       17.9572110794
  H        13.4658259807        3.5124809863       22.3411263611
  H        13.9531781321        2.7958960100       20.7632221535
  C        14.9380987990        1.8378052841       22.4460905140
  S        10.1443631207       10.3740566594       17.5475736278
  N        10.6080819700        9.9814698915       16.0161124702
  C        10.9425418411        7.8983198372       14.7021668954
  H        11.2296100607        5.9867810789       13.9389303611
  C         4.6340363966        0.7595203912       36.1538770973
  N         4.7568834669       -0.6294927325       36.0935607178
  O         5.4073942552       -2.3904473269       34.7669301757
  H         2.7022730250        2.2614646701       17.2175830586
  H         2.9531676839        1.7720598431       18.9969063306
  C         3.3748734296        0.2192014245       17.5173719999
  H        14.6563487157        1.1433994898       23.1700747260
  H        15.6037022796        1.2835434609       21.7899213991
  C        15.9071623816        2.8876908854       23.0138456752
  C        11.3431399709        8.6756400426       13.5558912196
  S         4.3891073048        1.5694612502       37.7261800266
  C         4.6987426236       -1.4314168319       37.3330887246
  H         3.5448743649        0.2900229127       16.3678837651
  H         4.2460937896       -0.3185750986       17.7630834588
  C         2.1384744595       -0.5810401966       17.8245381741
  H        15.4694896128        3.4487991920       23.8485975973
  H        16.2472431749        3.7040071853       22.3313941104
  C        17.1790078140        2.1313700683       23.5120876133
  H        10.9453501200        9.6453003219       13.6590913246
  C        11.8633905214        8.4430040662       12.3196128576
  H         3.8610125611       -1.0657250270       38.0332093830
  H         4.3542435771       -2.3542210159       36.9512556615
  C         6.0448763235       -1.6223245783       38.0933009431
  H         1.3947265257       -0.3570991070       16.9878215921
  H         1.7326516944       -0.3133648913       18.7200107630
  C         2.5140831567       -2.0724765200       17.8009621883
  H        17.5657147239        2.6652729524       24.3220301308
  H        16.9092677281        1.1463304234       23.8911705214
  C        18.1853848732        1.9950275182       22.4050818573
  S        12.2591796806        6.8720103947       11.6872707839
  C        11.8864626440        9.5565375752       11.3622834603
  H         6.2322071718       -2.6524859184       38.2387191997
  H         6.8664131869       -1.2273109283       37.6233032884
  H         6.0902165714       -1.1846960647       39.0153716914
  H         1.8898218025       -2.5952737232       18.5563148962
  H         3.5988509128       -2.1853630204       18.0791991427
  H         2.2773244448       -2.4701983783       16.8174698204
  H        19.1064343237        1.6853884683       22.7943491061
  H        18.3347869119        2.9717354466       21.8850282501
  H        17.7625783573        1.3078000005       21.6578666235
  C        12.3992918414        7.7518966898       10.1419160690
  N        12.3196863785        9.0931265241       10.1523942936
  O        11.6879268268       10.7272214980       11.6043333188
  S        12.9309847727        6.9361791179        8.6900648495
  C        12.2612623815        9.8920940912        8.9124849174
  H        12.3681268001       10.9272051958        8.9393429144
  H        13.0131459403        9.6313470977        8.0928853578
  C        10.8525178667        9.6803251769        8.3697121050
  H        10.6099745045       10.2726518748        7.5067288509
  H        10.7697056726        8.6710936221        7.9895919725
  H        10.1290581236        9.8688436305        9.1824204534
  H        -3.5329050317       12.9219838686       16.0308529598
  C        -2.4878856433       12.9740017457       16.0424532156
  H        -2.0884014591       11.8824150422       16.1461024782
  C        -1.7993583389       13.6766187807       17.1870934041
  C        -2.1337400875       13.5212625847       14.6973758489
  C        -2.5164113621       13.6725549914       18.5778725821
  H        -0.7871348497       13.3194192696       17.3282659436
  H        -1.6434415929       14.7162990855       16.8771519542
  H        -2.1158867205       12.8152372237       13.8831974828
  H        -2.8101459702       14.2926883727       14.3921797642
  H        -1.2349466630       13.9754222727       14.9015219451
  C        -1.5717158393       13.6274996620       19.8150997064
  H        -3.1760623350       12.8719665337       18.7516307116
  H        -3.1050394362       14.6017429002       18.6415179075
  C        -2.2069358156       13.4890225840       21.1355006624
  H        -0.8642634597       12.8651978182       19.7275756561
  H        -0.8381508040       14.4883205278       19.7868046512
  C        -1.2506178254       12.9399031770       22.2869741602
  H        -3.0388840139       12.8032184567       21.1201184429
  H        -2.5984791086       14.4598602289       21.3727374278
  C         0.0077617935       13.7771580689       22.6305757551
  H        -1.7522554508       12.9039329224       23.2316372239
  H        -0.8304037398       11.9950266006       21.9290879589
  C         1.1523160169       13.0003886670       23.4174001762
  H         0.4641690665       13.9947458152       21.5978906533
  H        -0.3286906334       14.7249225835       23.0223531080
  C         1.5714984822       11.6721823613       22.7657375901
  C         0.7474834452       12.2205088363       24.6358624507
  C         2.3327430471       13.8405499401       23.8873830514
  C         1.3561086164       10.5626132882       23.5512400919
  C         2.2222938854       11.4176424926       21.5494213977
  C         0.8843399370       10.8707323755       24.7771310591
  C         0.2130374177       12.8356835563       25.7707516254
  H         1.9931424859       14.7346156927       24.4447709239
  H         2.8207559101       13.2979825084       24.6788119621
  C         3.2142678328       14.4455621605       22.8529219538
  S         1.8886852509        9.1251456499       22.7474186460
  C         2.3538662935       10.1007939749       21.3482741422
  H         2.3376033903       12.2035280867       20.8130760743
  C         0.5682714797       10.2204806693       25.9172005551
  H         0.1050954832       13.8517742511       25.6733494832
  C        -0.0373957442       12.2268048002       26.9634957814
  H         2.8159977221       15.4588521764       22.6338588279
  H         3.2083275090       13.8259330353       21.9466598399
  C         4.6478187617       14.4443203930       23.2769779464
  C         2.7438896985        9.5146967633       20.0846559609
  C         0.0814789131       10.8743662702       27.0006604048
  H         0.6297332803        9.1062320216       25.8912206242
  C        -0.4063960881       12.6339084306       28.1920977360
  H         4.8502534945       13.4885994353       23.7400081290
  H         4.7205290995       15.1826428619       24.0363623199
  C         5.5362152494       14.6231389774       22.0187257895
  C         2.6528445121        8.1418100686       19.7344629134
  C         3.3799527968       10.4285250382       19.0514145308
  C        -0.1953831086       10.2122026916       28.3252120114
  C        -0.4512802254       11.5313974810       29.0688531187
  S        -0.6816585884       14.1115852681       29.0034499359
  H         6.4218530578       15.2884585907       22.2456030079
  H         5.0393962439       15.2772020657       21.2279244420
  C         5.9350002578       13.3271673505       21.3709345381
  N         2.3167719553        7.0399918120       20.6103993531
  C         3.0614078457        7.7134096592       18.4753102924
  C         3.6723616448        9.9822290947       17.7422965830
  H         3.5155684128       11.4948556935       19.2484676298
  C         1.0057933977        9.4179478370       28.9303167988
  C        -1.4169829329        9.3178881868       28.1249563036
  C        -0.7161150454       11.9097888475       30.3475969615
  C        -0.7799870407       13.2925302272       30.5266489783
  H         7.0041490869       13.1693502573       21.6846270616
  H         5.2489577529       12.5743473008       21.7447407043
  C         5.9162134022       13.3023964575       19.7927750587
  S         2.3683268697        5.6522271397       19.7329928693
  N         2.8857099403        6.3271371630       18.2845109450
  C         3.5162061933        8.5555287331       17.3911713121
  H         3.9863973058       10.6801301081       17.0061588426
  H         1.1227277801        8.4311104544       28.4258508501
  H         0.6845127761        9.2208449486       29.9684441042
  C         2.3756949851       10.1961555356       29.0188669314
  H        -1.2509647432        8.5664777953       27.3521578541
  H        -1.4921616867        8.7346494868       29.0503447917
  C        -2.7838364407       10.0510952105       27.9769615603
  H        -0.8132440979       11.1061683027       31.0804304736
  C        -1.0494947714       13.9734502048       31.8750264585
  H         5.3230005409       14.1600241246       19.4834296715
  H         5.4575607573       12.4824164107       19.2720061911
  C         7.3433074806       13.5746659701       19.1889747260
  C         3.8298161122        7.9194520820       16.1709657525
  H         2.7320512628       10.4626301432       28.0165811310
  H         2.0824635250       11.1964324748       29.4776439752
  C         3.5332169413        9.6213469846       29.7776209014
  H        -2.7693190104       10.5759760431       26.9929532727
  H        -3.0103007480       10.8130126984       28.6956435346
  C        -4.0769461602        9.1220207321       27.9248305325
  C        -1.1114732156       15.3766678302       32.0290985270
  C        -1.2120276916       13.1446182822       33.0576262352
  H         7.8193373152       14.4322324253       19.6507896886
  H         8.0357615640       12.7428168633       19.4119533419
  C         7.2415617605       13.6317902782       17.6971458454
  H         3.8331269385        6.8493113488       16.1376292850
  C         4.2194967372        8.4325583111       14.9828752564
  H         3.4882666185        8.5662002652       29.7726529537
  H         3.4803651018        9.8687286626       30.8092070365
  C         4.8657237362       10.1766926757       29.2910960428
  H        -3.8921689199        8.4299855896       27.0211413002
  H        -4.0983898221        8.6678096086       28.9746917097
  C        -5.4258985907        9.8982262802       27.5790553601
  N        -0.9468925737       16.2863764849       30.9696432717
  C        -1.5335610528       15.9345250627       33.2336435395
  C        -1.7633405545       13.6397318563       34.2054831210
  H        -0.9550659607       12.1026773900       33.0597319617
  H         7.9976529889       14.1738732591       17.1766100142
  H         7.2336894087       12.6453524397       17.2280562647
  H         6.3319764127       14.1868035320       17.3904352492
  S         4.5299091611       10.0279224972       14.5093150099
  C         4.3798700205        7.3967763649       13.8578761356
  H         5.0511202327        9.6541749522       28.3518640674
  H         4.7208303213       11.1649201306       29.0312068257
  C         6.1079314229        9.9644105270       30.2647115168
  H        -5.4065065447       10.8075723946       28.0393307090
  H        -6.1840944659        9.2696495025       28.0650819416
  C        -5.7688554350       10.1604099864       26.0873950168
  S        -0.9637479201       17.7571985576       31.6980678205
  N        -1.6075208640       17.2874552051       33.1393720702
  C        -1.8058365469       15.1282913556       34.3430397263
  H        -1.8737412874       13.0468399250       35.0768351510
  C         4.7441276791        9.3676435117       12.8587284019
  N         4.7722946385        8.0436928474       12.7303996983
  O         4.1631761778        6.2279943423       14.0009830350
  H         5.9462470368       10.2969789618       31.2619391839
  H         6.9682716006       10.5523840875       30.0122814711
  C         6.6202900472        8.5286389431       30.2288985387
  H        -4.8681322071       10.2521275043       25.4533412948
  H        -6.0916529651        9.1574285956       25.7468525054
  C        -6.7519007558       11.3515467750       25.8990457828
  C        -2.3597605296       15.7697434091       35.4583773927
  S         5.1439771073       10.4696180484       11.3782186001
  C         4.8092566823        7.4084534204       11.4108070329
  H         6.3658841083        7.9676067945       29.2528372849
  H         7.7366279282        8.5724230621       30.3103739887
  C         6.2036983561        7.6111250708       31.3392280673
  H        -6.8030249737       11.4445523598       24.8402030807
  H        -6.3699747906       12.3259703034       26.3154792092
  C        -8.0338266091       11.1201309428       26.6601931680
  H        -2.1160179108       16.8307921448       35.4702618127
  C        -2.8769451439       15.4247902844       36.6761050339
  H         5.4076478027        7.8905581515       10.6444642084
  H         5.3146571460        6.3926554977       11.5009465946
  C         3.3698515380        7.3927728078       10.8000087274
  H         5.1149583996        7.8346100791       31.3820147636
  H         6.5804341190        7.9249903092       32.2817389705
  C         6.3977866329        6.1471137692       31.0632864924
  H        -7.8744437995       10.7824842537       27.6854607107
  H        -8.6217666770       12.0004548952       26.7492232316
  C        -8.9395755384       10.0482735681       25.9738890275
  S        -3.5137146426       13.8641451199       37.0575988279
  C        -2.8864121276       16.4294751154       37.7312527811
  H         2.9885309556        6.3907081121       10.5612467623
  H         2.7392252128        7.8315972874       11.5164172932
  H         3.3190097073        7.9362826462        9.8293734339
  H         6.1317109142        5.5746724020       31.9474607307
  H         7.4721608689        5.9313535254       30.6741019279
  H         5.6472755384        5.8361004356       30.3596945292
  H        -8.5955241071        9.0509880659       26.0567036439
  H        -9.1224572387       10.1874103770       24.9320218051
  H        -9.9071680908        9.9264027478       26.4520567498
  C        -3.9114050242       14.6174785302       38.5441982591
  N        -3.6504047621       15.9284527611       38.7211340980
  O        -2.3632110439       17.5466268932       37.7767868408
  S        -4.7576542886       13.8799272530       39.8277944259
  C        -3.8215958419       16.6735262688       39.9380253474
  H        -3.6894409763       17.6659257142       39.7637373990
  H        -4.8170342070       16.5370054996       40.3635283785
  C        -2.7892368706       16.2991573878       40.9698370960
  H        -1.9131737720       16.8495282249       40.8998179501
  H        -3.2832645468       16.4713805459       41.9486668996
  H        -2.4340916482       15.3148496788       40.8050842034
