352
 i =    91300, time =    91300.000, E =        25.2126715519
  H        10.1708969993        6.9592886291       31.3098671236
  C        11.1245332279        6.7395970833       31.7025144623
  H        11.5911603417        7.6477159036       31.8599874692
  C        11.8955230390        5.8674885936       30.6877149056
  C        10.9271166703        5.8931212948       32.9942466095
  C        11.0791656998        4.7110361673       30.1012630051
  H        12.2215545791        6.6057166599       29.9352713632
  H        12.7816033452        5.4509836527       31.0843657265
  H        10.9634815870        6.4154055788       33.9422424342
  H         9.9628220256        5.4084905785       32.9169498568
  H        11.6463599719        5.0361779236       33.0921965297
  C        10.0192169182        5.3423036314       29.1051379798
  H        10.6332151836        4.0806381795       30.8775302503
  H        11.8356306048        4.0928517432       29.6617870597
  C        10.5828591682        5.2811900873       27.7050970821
  H         9.1168712170        4.7440679231       29.1120949591
  H         9.9240105441        6.3955698497       29.3545810263
  C         9.6203754335        4.7554375522       26.7210046782
  H        11.5054008498        4.6814121018       27.7685303303
  H        11.0388989130        6.1922057762       27.2894486618
  C         8.3975039723        5.6000876013       26.5858264721
  H        10.1681965146        4.6590574057       25.7391017120
  H         9.4250382192        3.6912204394       27.0151002160
  C         7.3133819227        4.7954668396       25.7940149725
  H         8.0199195285        6.1108841406       27.4613012201
  H         8.7283576153        6.3685090246       25.9744814404
  C         6.8767526145        3.4793089262       26.3915494700
  C         7.7647054220        4.1129204573       24.4973210155
  C         6.1659511454        5.7143501412       25.4766727751
  C         7.0948538706        2.4104864887       25.5584664791
  C         6.3663916132        3.1278312163       27.6213701173
  C         7.6856273815        2.7526451124       24.3431907015
  C         8.1916068507        4.8086638202       23.4255835160
  H         5.5773637233        5.0935516251       24.7118098707
  H         6.5223739761        6.6328651791       24.9254896354
  C         5.2572362190        6.1657427287       26.6671827142
  S         6.6794892071        0.8980031274       26.3254374114
  C         6.3065089747        1.8176564280       27.8058831207
  H         6.1468701494        3.9076340845       28.3520429764
  C         8.1351534378        2.1723746728       23.1502238092
  H         8.2451420281        5.8641792334       23.5877631940
  C         8.5881937110        4.2718651548       22.1969574428
  H         5.7107650515        5.8490463095       27.5718464923
  H         5.0889716423        7.2260038201       26.7138405708
  C         3.8925106892        5.3649148331       26.5854889209
  C         5.8221681537        1.1169872324       29.0224205603
  C         8.4777702247        2.9287098507       22.0093359398
  H         8.0853840739        1.0841407684       23.0999438992
  C         9.0468102090        4.6866581156       20.9741094994
  H         4.1154014748        4.3780097729       26.4179234084
  H         3.4116498770        5.7060538243       25.6892707968
  C         2.9975234426        5.6513472807       27.7971017989
  C         6.0261472270       -0.2278935871       29.3198573147
  C         5.2101224660        1.9033831549       30.1484519731
  C         8.9349456262        2.2659686667       20.8279212784
  C         9.2002782201        3.5805361880       20.1455631357
  S         9.3815596252        6.1600130583       20.1910089120
  H         2.5360539378        6.6422578674       27.6863413816
  H         3.6285213356        5.7071089968       28.6765877722
  C         2.0200620816        4.5476161400       27.9147140714
  N         6.4936315648       -1.2080561934       28.4080530716
  C         5.6361412075       -0.8406720290       30.5177647510
  C         5.0358780669        1.3168392035       31.3718922409
  H         4.9162000078        2.9965406754       29.9675195199
  C         7.8772614113        1.4720763035       20.0572610587
  C        10.2522526642        1.4564608141       20.9317734620
  C         9.8075204552        3.9519105512       18.9504298110
  C         9.9093143403        5.3546438325       18.7597341869
  H         1.7219954961        4.3666556889       26.8940401954
  H         2.5245199096        3.6739450567       28.1824207957
  C         0.8915780048        4.9259041954       28.9128467762
  S         6.2976544472       -2.6820986485       29.0892644161
  N         5.6860723545       -2.2283992736       30.4636506124
  C         5.2621786648       -0.0865274383       31.6656197777
  H         4.4635686942        1.8594720326       32.0733698922
  H         7.5175777235        0.6694619389       20.6483301118
  H         8.3439164471        0.8930184829       19.3256310796
  C         6.7315260675        2.2888505660       19.6788156482
  H        10.5499357922        1.2164423056       19.8920028315
  H        10.1031476899        0.4410401039       21.4672970996
  C        11.4391444838        2.1788917199       21.4836517719
  H        10.1051530785        3.1173082354       18.2938572903
  C        10.0724516244        6.1328996455       17.4632998631
  H         0.1588194140        4.1455636244       29.1425575944
  H         0.4412540515        5.6536041617       28.2491405824
  C         1.3902307436        5.7390041326       30.1728169367
  C         5.0013428797       -0.7771574445       32.8624679720
  H         6.9168676012        3.0220365508       19.0135786719
  H         6.2948881061        2.7647660511       20.5491696751
  C         5.6266551430        1.3358089024       19.1277437034
  H        11.2052885715        2.6172228471       22.4326326494
  H        11.8617882272        2.9501834809       20.8188503055
  C        12.6232975441        1.2421071898       21.8492571367
  C        10.1351773086        7.5471717608       17.3022460157
  C        10.3820845491        5.3671286301       16.2137022797
  H         2.0783105993        6.5192385900       29.9525665889
  H         0.4707075192        6.2310606967       30.4960579162
  C         1.9641692043        4.8520774188       31.3593446331
  H         4.9919614627       -1.8436435527       32.9024076560
  C         4.7531003722       -0.2843644798       34.1225975411
  H         5.1473100799        0.7974617642       19.9217673189
  H         6.0848948682        0.5954979215       18.4927522304
  C         4.5444149959        2.0985813350       18.2798400094
  H        12.3406326376        0.6193602195       22.6956013559
  H        12.7635853989        0.4618921499       21.0699401246
  C        13.8336595788        2.0829087647       22.2087309689
  N         9.8117720601        8.5161024798       18.3401789196
  C        10.3602985337        8.1523037682       16.0680499905
  C        10.5543594992        6.0260795140       14.9569230008
  H        10.6104652372        4.2658757413       16.2980483311
  H         2.6109212314        5.3899511787       32.0965520770
  H         1.1838981349        4.6152181791       32.1141599816
  H         2.5850478555        3.9302460943       31.1520123051
  S         4.7946642794        1.4020166067       34.6304165990
  C         4.5767357751       -1.2211944823       35.2689991916
  H         4.6002688574        3.1584895760       18.5332326650
  H         4.9257042667        1.9220664504       17.2846412557
  C         3.0810393320        1.5272721602       18.3645121683
  H        13.6554617223        2.9297981364       22.7991122221
  H        14.2668455212        2.5854622262       21.3552938158
  C        14.9463945992        1.3128876810       22.9027637404
  S         9.8135054113        9.9503509625       17.6346881401
  N        10.1577134877        9.5171743866       16.0744077022
  C        10.6036985225        7.4797173123       14.8681411234
  H        10.7812031899        5.3200483424       14.0960220727
  C         4.4904093427        0.8006687731       36.3113473219
  N         4.4844752600       -0.5481798838       36.3993774461
  O         4.4618707217       -2.4200852845       35.1616965100
  H         2.4042167003        1.9521526535       17.6355358325
  H         2.7772782651        1.9786831462       19.2992238376
  C         2.9191485685       -0.0510869873       18.4906404228
  H        14.4890650538        0.7566123872       23.6970879814
  H        15.3175434416        0.6125783506       22.1900388838
  C        16.0227305247        2.2636141191       23.6321018648
  C        10.8573590042        8.2374666108       13.7090340303
  S         4.1607702136        1.7155042248       37.7697941927
  C         4.4020429771       -1.2481861919       37.6542976310
  H         3.3356100772       -0.5774758248       17.6070699262
  H         3.3944954833       -0.3888775067       19.5107396354
  C         1.4625667376       -0.4280367638       18.6550619151
  H        15.6490669418        2.6859994077       24.5782590261
  H        16.1649619225        3.0829255352       22.9078399026
  C        17.3688302929        1.5426715885       23.7445690463
  H        10.5651827226        9.2626781134       13.7530661388
  C        11.3914230696        7.8677371383       12.5520666987
  H         3.7846295586       -0.6321059261       38.3060707399
  H         3.8428642039       -2.1886431470       37.7328258011
  C         5.7890042694       -1.4990475292       38.2328277943
  H         0.8318556672        0.4492627266       18.6176683645
  H         1.2753599121       -0.8609043430       19.5794593825
  C         1.1693372640       -1.5562348981       17.6299572394
  H        17.9107689868        1.9041177300       24.6562462887
  H        17.1948858562        0.4853037752       23.8430430190
  C        18.1350272559        1.8308083820       22.5046405966
  S        12.0531763718        6.3399033337       12.0433706738
  C        11.4069950515        8.9313692660       11.5044976358
  H         6.1222417125       -2.5421978778       38.2272865292
  H         6.4769652873       -0.8832750422       37.7057557573
  H         5.9569784270       -1.1885223228       39.2454222692
  H         1.6458412217       -2.4872565776       17.9021389896
  H         1.5228753097       -1.2670885136       16.6718475468
  H         0.1526012446       -1.8915069526       17.5439475510
  H        19.1600523482        1.5554511716       22.5173711047
  H        18.1319275739        2.9189674943       22.4074273444
  H        17.6123779676        1.5665478609       21.6030723347
  C        12.1695784952        7.0995505226       10.4792096289
  N        12.0028246340        8.4913534016       10.4460663147
  O        10.8715197616       10.0646987414       11.7081582079
  S        12.7039753011        6.2223392723        9.0078587458
  C        12.0501015456        9.1994894330        9.1858423013
  H        12.1167588423       10.2720222081        9.3329644089
  H        12.9987908096        9.0295368730        8.6441204133
  C        10.8482705046        8.9121523980        8.3673696093
  H        10.2932307209        8.0686134652        8.7498402109
  H        10.1162837859        9.7370463916        8.2350467086
  H        11.1848726799        8.4612473907        7.4361838735
  H        -3.4270180263       12.7600948677       16.7595776182
  C        -2.5706014594       13.3203481412       16.8727047245
  H        -1.6348893332       12.7703035501       17.1828061924
  C        -2.8807823805       14.4020622723       17.7971880622
  C        -2.2739635860       13.7858531753       15.4638672259
  C        -3.2078713244       13.7614200632       19.1758343536
  H        -2.0543861550       15.0785923203       18.0042283320
  H        -3.6804067256       14.9819577466       17.3606902884
  H        -1.9990576878       13.1237654424       14.7480941269
  H        -3.0789104210       14.3749471901       15.0080347542
  H        -1.3951762947       14.4560248189       15.4894740066
  C        -2.0176541197       13.3570743575       20.0084858005
  H        -3.8563716615       12.8932306581       19.0819373418
  H        -3.7291088987       14.4966881020       19.7905414862
  C        -2.3461670727       13.3721899789       21.5226587918
  H        -1.5428451903       12.5141368801       19.6674628050
  H        -1.2106354489       14.1108659876       19.9840840692
  C        -1.2488224056       12.8196388273       22.4662453796
  H        -3.2805037190       12.8259522339       21.5581446625
  H        -2.5222095592       14.3832746333       21.7795524211
  C         0.0230180054       13.6259563169       22.4831712603
  H        -1.7130289395       12.9008770265       23.4626561349
  H        -1.1051682197       11.8018080072       22.2120895126
  C         1.2000056772       12.8368276655       23.1718881897
  H         0.3496063706       13.7660461144       21.4778692333
  H        -0.1192262151       14.5728854241       22.8755927454
  C         1.5773338846       11.4688630019       22.5301783677
  C         0.7399387076       12.0624364741       24.3726426399
  C         2.4904751644       13.6473674006       23.2918769938
  C         1.3841499989       10.3274889681       23.2646672142
  C         1.9856716408       11.1148177076       21.2271753969
  C         0.8563493483       10.7214172761       24.4745242201
  C         0.1771913213       12.6855757242       25.4981191737
  H         2.7411440353       14.0661575243       22.3034846139
  H         2.4331598329       14.3982435813       24.0916870848
  C         3.8060083431       12.9352751967       23.5528142254
  S         1.8436530873        8.8538563379       22.4602700456
  C         2.2770096634        9.7663831813       21.0872939208
  H         2.1237464772       11.8914672872       20.4661449968
  C         0.3368501029       10.1046539927       25.6187915714
  H        -0.0533914654       13.7280681963       25.4603758909
  C        -0.1522511996       12.1184894038       26.6353467936
  H         3.9775667088       12.1290576670       22.8518340399
  H         3.7401615426       12.4405243713       24.5416869125
  C         5.0008313436       13.8378666222       23.6295189123
  C         2.6322421396        9.1048245018       19.8083374883
  C        -0.0389554455       10.7997494876       26.7402815642
  H         0.2604237801        9.0075751964       25.6542449000
  C        -0.5348748108       12.4445056592       27.8808394752
  H         5.7053889667       13.2383661211       24.1455320192
  H         4.7905764100       14.7285049383       24.2699793956
  C         5.6031860345       14.3091629818       22.2615321679
  C         2.6402922972        7.7119031371       19.6064620999
  C         2.9750488793        9.9924295708       18.6558785526
  C        -0.4328316821       10.0118612208       27.9451069793
  C        -0.7697088893       11.3215315167       28.6600451711
  S        -0.8014965223       13.9393365286       28.6570444867
  H         6.3679874541       15.1157892390       22.3304734183
  H         4.7648413122       14.6713144198       21.6039736304
  C         6.3652913587       13.1084076428       21.6129346777
  N         2.2210795978        6.7116367519       20.5069670964
  C         2.8958486106        7.1850044825       18.3141017189
  C         3.3423131968        9.3982446966       17.4571681293
  H         3.1970946017       11.0220589147       18.8555363776
  C         0.6733359569        9.2401387931       28.7259561216
  C        -1.6766977731        9.0255125019       27.7751103612
  C        -1.2157278743       11.6698563001       29.9186356432
  C        -1.1814454613       13.0033373357       30.1268240281
  H         7.3365047001       12.8980133419       21.9437764711
  H         5.7809249775       12.2599459905       21.8264925254
  C         6.6830328489       13.1537818483       20.1093901192
  S         2.4995174335        5.2908687855       19.7519429785
  N         2.8639186893        5.7555214489       18.2384128239
  C         3.3596005539        7.9173512471       17.2083757422
  H         3.6270268806       10.0478554689       16.6824123170
  H         1.0721853470        8.4084774892       28.1114310895
  H         0.2449360294        8.7722959076       29.6150484489
  C         1.8346061691       10.0394321299       29.2317421276
  H        -1.4576711354        8.3786299718       26.9413309197
  H        -1.9012839846        8.4461486814       28.6653635684
  C        -2.8860183031        9.8403782109       27.2507549105
  H        -1.5135687477       10.8815774462       30.6217744782
  C        -1.4401985819       13.7429102452       31.4658764707
  H         7.4266633152       12.3952801893       19.9758472958
  H         7.0994219679       14.0527545664       19.7550672025
  C         5.4367615253       12.7610233554       19.3033458583
  C         3.5802337812        7.2390628880       15.9530659028
  H         2.2558003343       10.5506556655       28.2998518300
  H         1.4227436648       10.8248286204       29.8424638027
  C         2.9829307900        9.3298538089       29.9954326194
  H        -2.5927709515       10.1846906489       26.3016106957
  H        -2.9992680798       10.6441490464       28.0470104388
  C        -4.2244041678        9.0181526799       27.0083154380
  C        -1.4261544357       15.1352813193       31.6504252901
  C        -1.7303340742       12.9225537676       32.6553024264
  H         5.1627706547       11.7205202536       19.6234707881
  H         4.5969220291       13.4398356936       19.5328989133
  C         5.6606193216       12.6557091333       17.7959014894
  H         3.6830445005        6.2115621425       15.9637921902
  C         3.7266412909        7.7492809394       14.6784476181
  H         3.1520604240        8.2718858217       29.6264640327
  H         2.7591896783        9.1210380661       31.0315627903
  C         4.2052620865       10.1566803422       29.8729777670
  H        -4.0740303317        8.4891683992       26.0281969331
  H        -4.2235940288        8.2345853978       27.8155766860
  C        -5.4333891946        9.9753092410       27.1032803635
  N        -1.1189115131       16.0860303763       30.6361664649
  C        -1.7203147056       15.7433304107       32.8352426981
  C        -2.0673405102       13.5319620679       33.8770315747
  H        -1.7644771271       11.9020290301       32.5359951534
  H         6.4013024798       11.8281687524       17.4828142628
  H         4.6258438479       12.5343881681       17.3355562849
  H         6.0986072631       13.4765578351       17.2677946524
  S         3.8382882913        9.3984007650       14.2289541841
  C         3.8522068445        6.7436172814       13.6018883421
  H         4.4561703902       10.2717805958       28.8732266165
  H         3.8978397211       11.1287094350       30.2961223825
  C         5.3827074795        9.4483892744       30.5319160948
  H        -5.1733321528       10.9524177498       27.6181161129
  H        -6.1681666090        9.5674482109       27.7716485435
  C        -6.1633526496       10.1790822862       25.7805226395
  S        -1.1994000134       17.6292036528       31.2674071236
  N        -1.8359455473       17.1980238410       32.6736763824
  C        -2.0595426014       15.0382791233       34.0267074202
  H        -2.1765578703       12.8416224553       34.6969411920
  C         4.1973332171        8.7158300828       12.5857552236
  N         4.1496526315        7.3483773988       12.5007293812
  O         3.5792819011        5.5868559666       13.7695055235
  H         5.3767789713        9.6445084395       31.5948386324
  H         6.1995206285       10.0503640717       30.1472946993
  C         5.7560779262        8.0129566836       30.0845164812
  H        -5.5042641912       10.7482442117       25.1316707227
  H        -6.2875239096        9.1670834089       25.3275715266
  C        -7.5035816435       10.8750910339       25.8525744509
  C        -2.2862923265       15.8255584878       35.1732260296
  S         4.4383267636        9.7238543800       11.1497845592
  C         4.0845220204        6.7076634821       11.2101450504
  H         5.1590696463        7.6731380011       29.2656532949
  H         6.8014240591        8.0004913431       29.8431363904
  C         5.4090422529        7.0044029197       31.2174237057
  H        -7.8411296583       11.2488413721       24.8869662615
  H        -7.3447323043       11.8851757893       26.3630077923
  C        -8.5516615259        9.9863816051       26.5455632778
  H        -2.0772688195       16.8626947286       35.1347861124
  C        -2.7017364443       15.4900576568       36.4291497270
  H         4.7777621767        7.1059594380       10.5067396669
  H         4.6220792045        5.7909316545       11.3408868426
  C         2.6200012994        6.6474293029       10.6993709657
  H         4.7138100620        6.3665212032       30.8686030938
  H         4.9747535881        7.5792115148       32.0076239483
  C         6.6191818433        6.2520556757       31.7614351033
  H        -8.1227959797        9.1920469673       27.0903393612
  H        -9.0072706584       10.6028636893       27.3462030068
  C        -9.5771446705        9.3450981360       25.6259293262
  S        -3.1391675593       13.8962056382       37.0593676196
  C        -2.8883381017       16.5925657010       37.4298153931
  H         2.4802070415        5.7786503472       10.0478148852
  H         1.8427255686        6.5711423726       11.4765015764
  H         2.4366372449        7.5385701000       10.1202515300
  H         6.3696743048        5.6924391205       32.5968667317
  H         7.3024262201        6.9943553627       32.2359489409
  H         7.2491225145        5.7176247994       31.0396836659
  H        -9.0005825650        8.5884598708       25.0215322031
  H        -9.9215656941       10.1267718481       24.8412339396
  H       -10.4422286121        8.9057601183       26.0878582754
  C        -3.6651018561       14.7653796188       38.5517165531
  N        -3.5506950939       16.1259289954       38.4811281423
  O        -2.7111909587       17.7207145075       37.1174175597
  S        -4.6848849081       13.9821524424       39.8204460956
  C        -3.9158245835       17.0605588269       39.6404106137
  H        -4.1096703416       18.0940929898       39.2515614337
  H        -4.9236297728       16.8610599144       40.1044976558
  C        -2.7796998314       17.1218055007       40.6445090341
  H        -1.8672282697       17.5683192164       40.1266332500
  H        -3.1247306040       17.6817492643       41.4748831490
  H        -2.4267881939       16.0897871517       40.8736137998
