352
 i =    78800, time =    78800.000, E =        24.8221693882
  H        10.4007415995        7.2875174698       31.7432241269
  C        11.3598180318        6.8707596010       31.8838998734
  H        12.0870560987        7.5913524032       32.1247478924
  C        11.9090222134        5.9934416322       30.7653874110
  C        11.3104650452        6.0393219904       33.2288767869
  C        10.8188451029        5.1227447208       30.1778415913
  H        12.3260697678        6.7239535100       30.0085360292
  H        12.7784106524        5.4284623456       31.1719524347
  H        12.1894006089        5.4101541542       33.3061411771
  H        11.4974863533        6.7126088145       34.0712804583
  H        10.3266053757        5.6211500183       33.3042094435
  C         9.9838356757        5.8867210402       29.1755698242
  H        10.2471606551        4.7276269307       31.0297452497
  H        11.1938208930        4.2426819279       29.6551999743
  C        10.4817281231        5.7769715126       27.6700271026
  H         8.9967375418        5.4532993021       29.2722718005
  H         9.9520208133        6.9421429190       29.4146001447
  C         9.4622512440        4.9214715809       26.8871294849
  H        11.3507801373        5.1630096597       27.5845552698
  H        10.6395509239        6.7825568538       27.2845582474
  C         8.3067512586        5.7245217373       26.2240415903
  H         9.9558155922        4.4943098146       25.9976012354
  H         9.0172515469        4.0598086518       27.4703305549
  C         7.2616501139        4.8663970616       25.5037858111
  H         7.8010241233        6.3059390259       27.0017417188
  H         8.7344542940        6.3857754417       25.5521142211
  C         6.8814783442        3.5635156589       26.1586868412
  C         7.8035097599        4.1126612351       24.3620797845
  C         6.1243956118        5.7716563186       25.0431561092
  C         7.0879056306        2.3928223493       25.4382173254
  C         6.3906536701        3.2811682438       27.4183940358
  C         7.7027587929        2.7820025292       24.2811065968
  C         8.2263662354        4.8285914623       23.2025574445
  H         5.6186248460        5.1587824682       24.2232762805
  H         6.4233345928        6.7398061613       24.6499625414
  C         5.0527711844        5.9766363807       26.0590596159
  S         6.5526762962        1.0097668939       26.1578123416
  C         6.1319044551        1.9557084946       27.5709705188
  H         6.2414567439        4.0726925353       28.1272715706
  C         8.1889720331        2.1780422894       23.1296010491
  H         8.1579222909        5.9904850261       23.0801601773
  C         8.5892909464        4.1737009613       22.0632040268
  H         4.8006960443        5.1279242268       26.7693349928
  H         5.3741556670        6.7539445777       26.7008580099
  C         3.7479651696        6.3449477388       25.3746831475
  C         5.7541537876        1.3249744322       28.8800651479
  C         8.5929865053        2.8144451184       21.9808897336
  H         8.2953437992        1.1038224929       23.0755747018
  C         8.9817500412        4.5539548818       20.8316247025
  H         3.4491525273        5.6052909811       24.6312072309
  H         3.9600576087        7.2998489722       24.8423920295
  C         2.7178946003        6.7442113451       26.4383695205
  C         5.9226674543       -0.0450304610       29.2056577568
  C         5.5028279157        2.2155359582       29.9191125065
  C         8.8376623785        2.1278291307       20.6975198515
  C         9.0992390300        3.4778375281       19.9786684245
  S         9.1545144221        6.0052715155       20.0767324398
  H         1.9406352237        7.2198796911       25.8909607238
  H         3.0032589594        7.3544073479       27.2735996261
  C         2.1733654493        5.5040291632       27.2002917447
  N         6.2926638306       -1.1017968128       28.3428448028
  C         5.8339963374       -0.4781913450       30.5398484796
  C         5.2239135162        1.7681285677       31.2220156552
  H         5.4631584823        3.2300277490       29.7787769630
  C         7.5372443287        1.4448681899       20.1296920030
  C        10.0929523952        1.2029066406       20.6949287278
  C         9.4751368724        3.9103124339       18.6796140340
  C         9.5664977996        5.2674521942       18.5868829448
  H         2.0773385551        4.7199863148       26.4224905936
  H         2.8120720774        5.0962252635       27.9784190850
  C         0.8720805612        5.7822748840       27.7627189549
  S         6.3297690279       -2.4883093046       29.1896359827
  N         5.9392253644       -1.9027955584       30.6595619844
  C         5.3576205220        0.3215962293       31.5867744821
  H         4.8060899522        2.4692202239       31.8713840090
  H         6.9916209756        0.8946712106       20.8903513847
  H         7.8577039786        0.7347763771       19.4062123825
  C         6.5857706474        2.4553496863       19.4273573707
  H        10.2357567081        0.9473517653       19.6164730618
  H         9.9220592601        0.3297739549       21.3043553978
  C        11.2984017029        1.8490861126       21.3154054192
  H         9.6420458812        3.1503757154       17.9105416737
  C         9.9454416421        6.1045544183       17.3937169091
  H         0.0487898389        5.5172251977       27.0680653746
  H         0.8263713093        6.7359748321       28.0137449143
  C         0.5854091606        5.0235711370       29.0518608646
  C         5.0157065980       -0.2730074743       32.8262199765
  H         6.9802567511        2.7152952778       18.4507246226
  H         6.5831745250        3.3766894582       20.0113579378
  C         5.1615878255        1.7776061055       19.2744735597
  H        10.9582760013        2.2297082976       22.3207488752
  H        11.5868492785        2.7632120379       20.6479101042
  C        12.4775339672        0.8451609756       21.3357559341
  C        10.0236031820        7.5170145858       17.2987765969
  C        10.1928911027        5.3491662202       16.0806277906
  H        -0.4928705402        4.9526985598       29.2505139710
  H         1.1029716130        4.0915719250       28.9089881324
  C         1.1160106974        5.7377419454       30.1887885948
  H         4.9278047339       -1.3574222667       32.7881154728
  C         4.8460326553        0.2279046559       34.1072512122
  H         4.4460670995        2.6487969316       19.2513451741
  H         4.7604245925        1.1271672345       20.0431551378
  C         5.0031841209        0.9557847131       17.9798906888
  H        12.4550185983        0.0403534589       22.1387020858
  H        12.5375038031        0.4427563422       20.3155244493
  C        13.7042855434        1.8082019161       21.6942693572
  N         9.7714780092        8.3693827540       18.4032566575
  C        10.3549715417        8.2256009784       16.1366138739
  C        10.5680998163        6.0475458752       14.8873910850
  H        10.1801298071        4.2959094970       16.1158348429
  H         0.9703234926        6.8077432314       30.3556244562
  H         0.8205924332        5.2628334097       31.1056058280
  H         2.2021653026        5.6421921179       30.1156386999
  S         4.7522575300        1.9277395595       34.4212908735
  C         4.6061352893       -0.7516352439       35.2112505755
  H         5.1583677311        1.6610738322       17.1848712469
  H         5.8495009255        0.1981510050       17.9547586948
  C         3.6047569888        0.2492706209       17.6979666930
  H        13.4136050589        2.7197962677       22.1841310084
  H        14.1225568251        2.0971322898       20.8029057641
  C        14.5576195567        0.9884424855       22.6721534278
  S         9.8627661580        9.9461044828       17.9544755933
  N        10.4114530335        9.6569689445       16.4194651927
  C        10.6948457000        7.5870340672       14.8734334791
  H        10.7333096200        5.6129374329       13.9004383670
  C         4.4423326749        1.4386909234       36.0596220999
  N         4.2922749470        0.0747145848       36.2923333161
  O         4.7338437631       -1.9782046856       35.1346032910
  H         3.3997630884        0.3775617659       16.6195910690
  H         2.8626994492        0.8910826174       18.1196628200
  C         3.4645601359       -1.1341184586       18.2521467926
  H        13.9872589605        0.6340391740       23.4684890229
  H        15.2128811208        0.1722124894       22.2288337279
  C        15.5035300550        1.9799076926       23.3920590072
  C        10.9547017687        8.3681763128       13.7364888324
  S         4.0943821196        2.5494581139       37.3119527067
  C         4.2550755348       -0.4666445050       37.6308060761
  H         4.2424049046       -1.7374756480       17.8924164150
  H         3.4497288343       -1.1336749733       19.2999344660
  C         2.0730778723       -1.6913132091       17.9123489458
  H        14.9451275479        2.4989916163       24.1336172529
  H        15.6983102539        2.6286703512       22.5580280844
  C        16.7602365257        1.4809598394       23.9642992708
  H        10.6551043787        9.4059220739       13.9326998157
  C        11.4527028231        8.0992422360       12.4432009918
  H         3.7430904884        0.1892035683       38.3402070836
  H         3.6737011291       -1.3623665516       37.6482044323
  C         5.6967864075       -0.6794989744       38.1890355275
  H         1.4221418082       -0.8658630383       18.1795721320
  H         1.8502350038       -2.5145218997       18.5721613014
  C         2.0375337432       -2.1748931653       16.4820547357
  H        17.0216076169        2.2654207164       24.6713426711
  H        16.6566864364        0.5570470602       24.4004728778
  C        17.9149312146        1.3859684761       22.9701610103
  S        12.1751066353        6.6397090777       11.9542044974
  C        11.3430951600        9.1453475605       11.4039762072
  H         5.7851912654       -0.1314058098       39.0965256224
  H         5.7642357690       -1.7385561629       38.4415174719
  H         6.5122658561       -0.2165556552       37.6157184025
  H         2.7678817372       -1.7284103252       15.7469498020
  H         1.0935285038       -2.0852008995       16.0411821497
  H         2.2342461492       -3.2287130213       16.4927336471
  H        18.4355879345        2.3119345466       22.9121919739
  H        17.5638522875        1.1781364738       21.9795507227
  H        18.5822669178        0.6053093473       23.3235243733
  C        12.4536331418        7.3962321727       10.3774134765
  N        11.9899613529        8.6837988796       10.3101608758
  O        10.8240879130       10.2606072053       11.6881332588
  S        13.5847758603        6.8820726142        9.0706308761
  C        12.2468211127        9.5995046982        9.2460108836
  H        12.0529850607       10.5904151811        9.5863218442
  H        13.2227854389        9.5433494142        8.7943603362
  C        11.2080874433        9.2299342082        8.1269174368
  H        10.9541179876       10.1488424218        7.6183647069
  H        11.8024923517        8.5526586370        7.5180712820
  H        10.2822128469        8.7990855294        8.4537309856
  H        -3.5443704375       14.7960928519       16.2709970545
  C        -3.2353093160       13.7578170733       16.2672152616
  H        -4.0705288708       13.1368042908       16.6306972316
  C        -2.0716491586       13.5036924150       17.2366724040
  C        -2.8781639665       13.3308999894       14.8147833553
  C        -2.6121933460       13.3835297138       18.6238110419
  H        -1.4520914043       12.6683518897       16.9732638857
  H        -1.3898477244       14.3543050369       17.1194899984
  H        -2.2889382790       12.3803476027       14.6945294353
  H        -3.9010626075       13.0708565282       14.3498202088
  H        -2.3487843388       14.1047266180       14.1871211990
  C        -1.6030944295       13.6868573415       19.7166824190
  H        -2.9726242607       12.3951858119       18.9060599636
  H        -3.4802170909       14.0586070306       18.6760262014
  C        -2.2218245577       13.6861341324       21.1330150085
  H        -1.0182437563       12.8228076020       19.5624189949
  H        -1.2093507899       14.6221768413       19.4488771514
  C        -1.2124461454       13.1600067520       22.1182487884
  H        -3.2143656301       13.1195668175       21.1112183829
  H        -2.5139811925       14.7379519107       21.4543571863
  C         0.1232787183       13.9924885689       22.3592348116
  H        -1.7157471765       12.9574794748       22.9762965633
  H        -0.9192638136       12.1955262439       21.6659399976
  C         1.2773854101       13.2562928543       23.0393839475
  H         0.5502670500       14.2943789483       21.4322453092
  H        -0.0108713539       14.9569242220       22.8896991951
  C         1.5722288321       11.9366879935       22.3177608412
  C         0.7788341539       12.5009097272       24.2472332367
  C         2.4994441945       14.0979258482       23.2997892224
  C         1.2383823492       10.8451162811       23.0853437381
  C         2.1364656588       11.5139212983       21.0926826566
  C         0.8482156169       11.2047018244       24.3709717102
  C         0.3092255411       13.2421451477       25.3764262991
  H         2.8175008240       14.6726644337       22.4574993757
  H         2.1743067455       14.7801065506       24.0152351483
  C         3.8059535492       13.3184403231       23.7306144394
  S         1.5499332494        9.3051787352       22.3126192874
  C         2.1617947822       10.1280586959       20.9527618870
  H         2.4571380358       12.2433890734       20.4591343041
  C         0.4705004994       10.5623823515       25.4962139436
  H         0.1907092004       14.3160445236       25.3217329511
  C        -0.0106144267       12.6175158735       26.5247815798
  H         4.0498478074       12.7051984677       22.9198114900
  H         3.4800144987       12.6536120737       24.5746038587
  C         5.0694926124       14.1230289923       24.0086718279
  C         2.5835134738        9.4436376300       19.6572152180
  C         0.0775068777       11.2732014561       26.6146899489
  H         0.4474983740        9.4743452140       25.3797099652
  C        -0.3795719054       13.0097885936       27.7731910194
  H         5.7890350351       13.5780713879       24.6442182794
  H         4.8078233137       15.0760792337       24.5215326587
  C         5.9305161818       14.5371924930       22.7449953126
  C         2.4987781772        8.0666343483       19.4037689802
  C         3.1985756285       10.2877114115       18.5719190000
  C        -0.2915117697       10.5724617124       27.8533544100
  C        -0.5703518794       11.9126896467       28.5987986884
  S        -0.6982781921       14.4941263820       28.5389223671
  H         6.5757621873       15.3820142372       23.0033905749
  H         5.2816435181       14.8722782789       21.9886615174
  C         6.8217840492       13.4271390831       22.2815726855
  N         1.8458815901        7.1371853005       20.2529787044
  C         2.9836125160        7.5157002217       18.2461865613
  C         3.5093640928        9.7477648544       17.3489276321
  H         3.3714071136       11.3510964371       18.6888731131
  C         0.7914206347        9.8683860136       28.6550266371
  C        -1.5789187409        9.7211454119       27.7954887012
  C        -0.9778001800       12.3018382409       29.8833145111
  C        -1.0425791522       13.6476518370       30.0066010515
  H         7.6871325242       13.3176771378       22.9418643079
  H         6.3464946107       12.4393822408       22.3885083121
  C         7.5680769130       13.5086529574       20.9721574224
  S         2.0944198501        5.6493095566       19.6138449698
  N         2.8802757990        6.1557216461       18.2379200541
  C         3.4248397237        8.2604285023       17.1287936272
  H         4.0157536116       10.3952649859       16.6111962034
  H         1.0679282858        8.9205533197       28.1697781515
  H         0.3874939779        9.5468080679       29.6101763354
  C         2.0972653767       10.5369961637       29.0017718695
  H        -1.4647909397        9.0490621614       27.0017321114
  H        -1.7430070747        9.1204180343       28.6726503116
  C        -2.8555141445       10.4606235711       27.4882494978
  H        -0.9785653556       11.5673418689       30.6563883472
  C        -1.3294805386       14.3230396411       31.3560432177
  H         8.3337095434       12.7608830510       20.9244932817
  H         8.1815702451       14.4107615234       20.9720230379
  C         6.6599439492       13.3900715619       19.6841493899
  C         3.6655631625        7.4929543844       15.9284952051
  H         2.4982580563       10.9844820769       28.1045639447
  H         1.9466652395       11.4032038579       29.7177280188
  C         3.1472832997        9.5270014321       29.5484374452
  H        -2.5471729046       11.0100183479       26.5508247744
  H        -3.1042785486       11.1003431863       28.2899595630
  C        -4.0199630319        9.6389112937       26.9863343640
  C        -1.4870341717       15.6726975228       31.5596032058
  C        -1.5812459064       13.6054938056       32.6701653009
  H         5.9804330878       12.6091291681       19.9301733920
  H         6.1543014356       14.3071885017       19.6227620512
  C         7.4279499410       13.0134089948       18.4357527095
  H         3.6833157056        6.4086586995       16.0720387898
  C         3.9063767256        7.9090708840       14.6605895142
  H         3.3520579877        8.9149151600       28.6579383213
  H         2.7949873606        8.8729881218       30.3172955500
  C         4.3106171838       10.1455639506       30.1869786264
  H        -3.6853603313        9.1518276143       26.0774065873
  H        -4.2548148863        8.7177179660       27.6354868293
  C        -5.2633772505       10.4531947334       26.7157347468
  N        -1.2164777335       16.6278746997       30.5839284648
  C        -1.7109579769       16.3317786358       32.7688904961
  C        -1.9151094304       14.1820583419       33.8550633953
  H        -1.4057391099       12.5604563555       32.6541463392
  H         8.0621411690       13.8833101393       18.1066342000
  H         8.1144453026       12.2410821139       18.7281338440
  H         6.7415768818       12.6056910303       17.6241415548
  S         4.1397150270        9.5581280009       14.1435534734
  C         4.0085358802        6.9421330158       13.5777558069
  H         4.8595174726       10.7526585247       29.4288729855
  H         3.9045524917       10.9030766515       30.8802888827
  C         5.2705949718        9.0805180173       30.7192552691
  H        -5.0090912788       11.4197704210       26.2889064280
  H        -5.8832994789       10.4397147080       27.6347651262
  C        -6.1352866073        9.7742421513       25.6824779481
  S        -1.2058837443       18.1284439422       31.2059018068
  N        -1.7323568356       17.7111504103       32.7218980530
  C        -1.9270530409       15.6614915322       33.9740236102
  H        -2.0788045017       13.5828733383       34.6711888647
  C         4.4965307897        8.8880980550       12.4963177829
  N         4.4935776572        7.5005448901       12.4477323955
  O         3.7699861010        5.7220133171       13.7675627094
  H         4.6998023669        8.5249452067       31.4904086834
  H         5.9638098549        9.7831923846       31.1333413209
  C         5.9857993202        8.1652415989       29.7486324745
  H        -5.4529313434        9.4804874700       24.9187516607
  H        -6.4860537422        8.8428904544       26.1352127611
  C        -7.2137563934       10.7486308417       25.2250993413
  C        -2.1648443282       16.4709679723       35.1609860051
  S         4.7142972241        9.8218041867       10.9659537355
  C         4.6257425542        6.6635766818       11.2519160283
  H         5.6259110777        8.4546531019       28.7134687560
  H         7.0542156522        8.4209266345       29.6643492882
  C         5.5882169063        6.7180509850       30.0188992650
  H        -6.9104748014       11.2706421753       24.3325260309
  H        -7.3037893597       11.4979806041       26.0948635840
  C        -8.5543034946       10.0422270585       24.9010259563
  H        -1.9507750150       17.4760866084       35.1026549412
  C        -2.7105892339       16.1329305520       36.3780298122
  H         5.4231699335        7.0275125329       10.6042712865
  H         5.0384883239        5.6925564116       11.4882818697
  C         3.2796879613        6.5487800293       10.5131705299
  H         5.4167306456        6.1526697488       29.1235725996
  H         4.6011546718        6.6631841947       30.4526645732
  C         6.4836361848        5.8889720699       30.9177797431
  H        -9.0320052983       10.3939567160       24.0141592763
  H        -8.4620092941        8.9876792713       24.8650298888
  C        -9.5793349333       10.3250369540       26.0352530411
  S        -3.2462377027       14.5479445793       36.8723350289
  C        -2.8546051980       17.2539530422       37.4010081390
  H         2.8381395324        7.5287323682       10.2484313723
  H         3.3550882179        6.0030011098        9.5677014839
  H         2.5927398992        6.0442647041       11.2141341641
  H         6.2589063462        5.8708729487       31.9746513094
  H         7.5527414858        6.2210805980       30.7823861017
  H         6.6379516762        4.8661821369       30.5021676090
  H        -9.7988818115       11.4007309302       26.1286972042
  H        -9.0935803243        9.9822256658       26.9742478898
  H       -10.4663222478        9.7876917017       26.0660341533
  C        -3.6965369390       15.3702393788       38.4162516140
  N        -3.3996145394       16.6833076609       38.5264082404
  O        -2.4014640365       18.4098746471       37.2122259404
  S        -4.2854626116       14.5099962115       39.8149385208
  C        -3.4261838329       17.4854121191       39.7593239212
  H        -3.3843142622       18.5783460612       39.5128946906
  H        -4.3299862273       17.2086663931       40.2829677537
  C        -2.2546456631       17.1945326407       40.5805960341
  H        -1.9006066415       16.2012741502       40.2336741360
  H        -1.5968954765       18.0730516372       40.3780638599
  H        -2.5129626590       17.2058981989       41.6030499415
