352
 i =    43200, time =    43200.000, E =        25.1190421585
  H        11.6972184025        6.8423643796       32.0379318173
  C        11.1438293793        5.9759574770       32.0180008478
  H        11.8360294562        5.1736159032       31.6225712228
  C         9.9135228126        6.2815421927       31.1993925963
  C        10.7810726446        5.3134822178       33.3163230167
  C        10.2160391865        6.6230625458       29.8143963129
  H         9.2787861705        5.4326673090       31.1362191086
  H         9.4280976999        7.1137253288       31.6833007804
  H        11.7040780400        5.3845700021       33.9250364885
  H         9.8715311950        5.7462660147       33.7784581516
  H        10.6482691124        4.2470677516       33.2065290540
  C        10.3198080272        5.3794327592       29.0806681454
  H        11.1862788904        7.0770934798       29.7139503357
  H         9.4564608561        7.3178732698       29.2771330752
  C        10.7159347708        5.4766284455       27.5983518169
  H        11.0289675342        4.6647184455       29.5295752220
  H         9.4325665520        4.8385261838       29.0825012300
  C         9.7222424822        4.7043172613       26.6365286983
  H        11.6989574785        5.1346956717       27.3511662242
  H        10.7537348374        6.5642946172       27.3717614101
  C         8.6018275244        5.5778129085       26.0553742547
  H        10.3648693717        4.3535216870       25.7561445934
  H         9.4521251227        3.8598821203       27.1049867893
  C         7.4180312949        4.8992665224       25.3248162916
  H         8.2265188625        6.0492664921       26.9358547696
  H         8.9763181773        6.4195546005       25.4034909778
  C         7.0140085807        3.5771109160       25.8755838371
  C         7.9656335747        4.2221003304       24.1068988648
  C         6.1161846635        5.9123814639       25.0651651564
  C         7.4827212843        2.4877745080       25.1193015937
  C         6.4496279759        3.1836174781       27.1062408207
  C         8.0971029269        2.9018682113       24.0265986123
  C         8.4294561847        4.9703468504       23.0442118363
  H         6.4018477934        6.5695665529       24.2335526821
  H         6.0170361334        6.4685546344       25.9562287736
  C         4.8489770477        5.1269491220       24.5820966597
  S         7.0876030958        0.9547485653       25.8585540561
  C         6.5562418372        1.8376603461       27.2710495328
  H         6.3089609683        3.9248919875       27.8684901192
  C         8.6111712281        2.2919541058       22.8831472346
  H         8.3276513761        6.0696842646       23.0824562992
  C         8.8311240604        4.4138693959       21.8672519187
  H         5.1484738616        4.6248646305       23.6360825273
  H         4.6223953448        4.2002251823       25.1868424393
  C         3.6002126141        5.9523386441       24.3257102718
  C         6.0836052506        1.1522747727       28.5234589076
  C         8.9484215739        3.0724449019       21.7602902201
  H         8.7556530810        1.2944496864       22.7793543259
  C         9.2246223872        4.8480185276       20.6270488751
  H         2.8464394233        5.3725040488       23.8065983671
  H         3.9514872226        6.8585944597       23.7513350361
  C         2.9601196423        6.3439551658       25.5782183530
  C         6.1611297788       -0.2360317528       28.8048758557
  C         5.5574742633        2.0252796843       29.6491426520
  C         9.5167868043        2.3759744150       20.5806435928
  C         9.4975893983        3.7298036757       19.8242288197
  S         9.3883070084        6.3273175599       19.7237610043
  H         2.5287512884        7.3124482991       25.3119694392
  H         3.7904651826        6.6263300396       26.2633963930
  C         2.1032175290        5.1623176841       26.1684127737
  N         6.6530120465       -1.1460866483       27.9074744413
  C         5.7960689470       -0.7511445896       30.0901896034
  C         5.1569598010        1.4906768368       30.8469283645
  H         5.3045542350        3.0687548863       29.4514058209
  C         8.5367502895        1.3353256032       19.9339680107
  C        11.0171794083        1.8359186196       20.6839935903
  C         9.8054511494        4.0824605350       18.5247490532
  C         9.8299625931        5.4335024415       18.2949934290
  H         1.4514814471        4.8738717636       25.4083111480
  H         2.6679780880        4.3691774613       26.4615476722
  C         1.1962861349        5.7413453897       27.3259800747
  S         6.5991164897       -2.6087849972       28.6763416585
  N         6.0025103159       -2.1557563436       30.1305397230
  C         5.3390036017        0.0325747994       31.1374905882
  H         4.7605255855        2.1159764483       31.6037202232
  H         8.5761450491        0.5043155121       20.5857629256
  H         8.9372734490        0.9499623211       19.0316365243
  C         7.0920892562        1.7476367992       19.5597441229
  H        11.2394456126        1.4052741311       19.6949077715
  H        11.1080361800        0.9518568592       21.2839425702
  C        12.1247573916        2.8343851440       21.0468885439
  H        10.0491824545        3.3154849078       17.8311302863
  C        10.1366086138        6.1153106566       16.9717784154
  H         0.4067508585        4.9821033494       27.3497195024
  H         0.8258872028        6.6705401520       26.9758736990
  C         1.9994306881        5.7428548996       28.5929666679
  C         4.9619069094       -0.6040734064       32.3736855564
  H         7.0732763082        2.8216020840       19.5635135597
  H         6.3451907645        1.4292331960       20.3292481281
  C         6.7965543255        1.2386446785       18.1678928834
  H        11.8248752464        3.4662744811       21.9889211054
  H        12.3551097842        3.5795491631       20.2320380474
  C        13.4422700577        2.0948076661       21.1677532270
  C        10.1550046780        7.5194324118       16.8190839866
  C        10.4374560334        5.3666629171       15.7515597478
  H         2.6801478042        4.9255486085       28.7524858500
  H         2.6299684627        6.6099264161       28.5914211690
  C         1.2433293875        5.6263949202       29.8617449016
  H         5.0613088037       -1.6840853668       32.2694762211
  C         4.6615598762       -0.0522141899       33.6205031733
  H         6.8401458336        0.2045672038       17.9560109948
  H         7.4816056870        1.7848704257       17.4629653179
  C         5.3666724162        1.6072463751       17.6867937905
  H        13.4942244173        1.3125625898       21.9411796698
  H        13.6863455065        1.6316479411       20.1786138443
  C        14.6217456610        3.0039896858       21.3962835375
  N        10.0282961316        8.4690855936       17.8281062370
  C        10.5818420932        8.1533564559       15.6346816429
  C        10.7073787780        6.0049735904       14.5389504384
  H        10.4955104085        4.2812564460       15.8718498693
  H         0.7001164756        4.6658446741       29.7946789820
  H         1.9077466733        5.6497418121       30.7249726175
  H         0.4106165562        6.3622765429       29.9198932331
  S         4.4560058459        1.5558233939       34.0096840597
  C         4.4863535623       -0.9621297536       34.7227761916
  H         5.0615155227        2.4952369399       18.1108298248
  H         5.3672771317        1.7389655834       16.5921691016
  C         4.2695233673        0.6515670735       18.1145295241
  H        14.3172664211        4.0004948510       21.3212170096
  H        15.4190215978        2.9309009623       20.6160170133
  C        15.0289759528        3.0771564663       22.8857461519
  S        10.2113375848       10.0095876180       17.2343498082
  N        10.7248290768        9.5768752307       15.7410494567
  C        10.7836885406        7.5097893286       14.4357778601
  H        10.8803584582        5.3982612354       13.6524481592
  C         4.1473908595        1.0581448730       35.6381703537
  N         4.0574595943       -0.2823471673       35.7616115848
  O         4.6562816056       -2.1655608734       34.6473729321
  H         3.2899382053        1.1199094164       18.2723922988
  H         4.5579270510        0.1475631584       19.0327106736
  C         4.0929959976       -0.2732214602       16.8831433672
  H        15.8033984939        3.8803517298       23.0450144361
  H        14.1433379677        3.4364861042       23.4768594626
  C        15.6105943681        1.7585702976       23.3606971244
  C        11.0767551112        8.3040509708       13.2635093471
  S         3.5452846406        2.1034454806       37.0274492452
  C         3.8603208570       -0.9778180668       37.0553265749
  H         3.6286767097        0.1802085565       16.0256909225
  H         5.0669988969       -0.6087298370       16.5699202499
  C         3.2489015577       -1.4357858200       17.3875990512
  H        15.6339185131        0.9875342336       22.6088842714
  H        15.1355175920        1.3237550667       24.1578740295
  C        17.0581567765        1.9660522244       23.8222528216
  H        10.9972466672        9.3906906225       13.3572323091
  C        11.5044217303        7.9659271356       11.9777353502
  H         3.1493467424       -0.4717920892       37.7004461033
  H         3.4449504939       -1.9721041577       36.9613325161
  C         5.1118143847       -1.0295357896       37.9178883911
  H         3.1757519280       -1.3638235729       18.4421100691
  H         3.8415237743       -2.2792041400       17.0544855874
  C         1.8358122926       -1.4431388013       16.8033733027
  H        17.0888757730        2.7784160652       24.4870137924
  H        17.4765366897        1.0238911471       24.2038988299
  C        17.9816979898        2.0966048599       22.6998316953
  S        12.0231033356        6.4166569216       11.3359278639
  C        11.6553266251        9.1451801391       10.9920409805
  H         5.1697596534       -0.2119799925       38.6511645013
  H         5.0775222943       -1.8931571734       38.5747576585
  H         6.0813125125       -1.2020196307       37.3766652885
  H         1.4846566075       -2.4774533093       17.0369614921
  H         1.8182874698       -1.1146445729       15.7468251860
  H         1.3129464053       -0.7510586359       17.5221120854
  H        19.0096288338        1.8668508671       23.0052994301
  H        17.9341045811        3.1158806100       22.2450351058
  H        17.7796186457        1.4117902489       21.9109570056
  C        12.2345663656        7.2516199985        9.7339513477
  N        12.0777362400        8.5917005358        9.8423238399
  O        11.3562553065       10.3152804214       11.2362975585
  S        12.6472282846        6.3853143332        8.1884929729
  C        12.2895271376        9.4332131101        8.6626151137
  H        12.6518600287       10.3230808184        8.9452819601
  H        13.0743439463        9.0245898247        7.9516162576
  C        10.8801552665        9.7799541234        8.0120022110
  H        11.0782222239       10.7654880714        7.6260851949
  H        10.6386972381        9.0942255559        7.2300622594
  H        10.0693619548        9.8783994187        8.7131873377
  H        -1.3776779386       13.3226068045       17.2154445723
  C        -1.9901567562       14.1086645379       16.7936469639
  H        -1.2570292431       14.8695306833       16.4233670415
  C        -2.9210542961       14.7563010708       17.8506360897
  C        -2.7437979184       13.4703040609       15.6867273341
  C        -3.0421049731       13.9492936410       19.0650190081
  H        -2.4118685712       15.5881214802       18.3195516888
  H        -3.9264491064       14.9280052820       17.5277212464
  H        -2.1294518614       12.9200475952       15.0565526297
  H        -3.5301139857       12.7909170551       15.9223497353
  H        -3.1144110409       14.3315702498       15.0480079263
  C        -1.7523876212       13.9939917361       19.9236851907
  H        -3.2136754556       12.8876557447       18.8653915577
  H        -3.8986143800       14.3487577147       19.5488363288
  C        -2.0188736581       13.3188917000       21.2675652701
  H        -0.8947319828       13.3733333484       19.6530832046
  H        -1.3924508788       14.9831823948       20.1477845520
  C        -0.7350177276       12.7806395737       21.9232532784
  H        -2.6714559004       12.5158552599       21.0081881316
  H        -2.4998215299       14.1033215849       21.8693492741
  C         0.2681207869       13.8385651476       22.4678195659
  H        -0.9694410732       12.0806239978       22.7291931091
  H        -0.2462168848       12.2182186086       21.1742891971
  C         1.4536037246       13.2389866606       23.2752916310
  H         0.5827736468       14.4020886588       21.6420985603
  H        -0.3649236769       14.5377652335       23.0762626090
  C         1.7910223684       11.9695097968       22.5219427288
  C         0.9786144676       12.5044587151       24.5044289603
  C         2.6996924091       14.1673512147       23.3164024061
  C         1.4137095922       10.8590725316       23.2542415760
  C         2.3522377213       11.5833343748       21.2882209170
  C         0.9001502421       11.1816970061       24.4978400932
  C         0.5516667180       13.1137475011       25.6261237150
  H         3.0591716102       14.2292373491       22.3499147114
  H         2.3495418581       15.1544348513       23.7073428126
  C         3.8757612493       13.4632476198       23.9734854408
  S         1.7972135590        9.3951598287       22.5188228657
  C         2.3640395447       10.2502417784       21.0647958845
  H         2.6531595694       12.3669319225       20.5820602975
  C         0.5523564509       10.5062167438       25.5947872151
  H         0.5972358242       14.1639143681       25.4616078803
  C         0.0725696884       12.4584762266       26.7840968947
  H         4.1632595561       12.5560727497       23.5093135639
  H         3.6115693356       13.1276704781       25.0337761438
  C         5.0738740262       14.3349849135       24.0698072313
  C         2.8155164193        9.5375250553       19.8560255295
  C         0.1247197093       11.1008676931       26.8148445150
  H         0.5231654415        9.4240363574       25.5873021570
  C        -0.4734551506       12.8113623957       27.9929096097
  H         5.6829327128       13.7648261916       24.7858361260
  H         4.8935530492       15.2453497800       24.6214352368
  C         5.8394751791       14.5884070324       22.7946261551
  C         2.8091227558        8.1577761459       19.6911402055
  C         3.3547323600       10.3277836342       18.6889581011
  C        -0.4323573613       10.3291630247       28.0005036146
  C        -0.7232006797       11.6446763021       28.7344159457
  S        -0.9395245002       14.2197279239       28.7846774243
  H         6.5915489415       15.3987541679       23.0352386149
  H         5.0403561800       14.9333335743       22.0489094325
  C         6.5274564619       13.2648454464       22.1933360812
  N         2.3280696354        7.1874731469       20.6147290781
  C         3.0598053462        7.5976822743       18.4488340531
  C         3.5795747523        9.7890287631       17.4399948021
  H         3.4522103108       11.3642707980       18.7836803631
  C         0.6627122298        9.5367263785       28.7460780684
  C        -1.7495453609        9.5121822825       27.7974383197
  C        -1.2505859756       12.0172747359       29.9861648912
  C        -1.3569213095       13.3554182717       30.1874072903
  H         7.0417541263       12.6722924418       22.9448723241
  H         5.7974878423       12.5799693476       21.8177889096
  C         7.6529832004       13.5932374858       21.2587406868
  S         2.3962472300        5.7294264486       19.9082941604
  N         2.9694446241        6.1865388081       18.4613233951
  C         3.3701126741        8.3549046872       17.2772701342
  H         3.8874812011       10.4960279969       16.6222729591
  H         1.2755178354        9.0391946838       27.9819663232
  H         0.3520497627        8.8280459359       29.4824360828
  C         1.7251043624       10.4323233618       29.4481166786
  H        -1.6805580238        8.8956092794       26.9339883974
  H        -1.8354198922        8.7783356637       28.5996187169
  C        -2.9599910734       10.4208935098       27.4837582297
  H        -1.4579484141       11.2357693700       30.7033546646
  C        -1.5352830828       14.0338057976       31.5745458132
  H         8.3693763235       12.7395390755       21.1756002724
  H         8.3025454524       14.3775597822       21.6724243443
  C         7.1356227895       14.1129357206       19.9870098562
  C         3.4947214053        7.6525390885       16.0650710437
  H         2.1278427255       11.1563331586       28.7367981095
  H         1.1659861862       10.8906321943       30.2569420265
  C         2.9042344662        9.6516465448       29.9920420779
  H        -2.7768353311       11.0794420350       26.6622490923
  H        -3.2368180476       11.1405553838       28.2695964966
  C        -4.2606335161        9.6316623475       27.2809336436
  C        -1.5997234910       15.4422510434       31.7377172480
  C        -1.8744243791       13.2603817280       32.8186971088
  H         6.4972675756       14.9465134866       20.1618619928
  H         7.9800232100       14.4673604492       19.4024667788
  C         6.4657440581       13.1452682907       19.0957456773
  H         3.0849629485        6.6255803937       16.0852198353
  C         3.7989332954        8.0428643286       14.7987431461
  H         3.0514536323        8.8404163150       29.2411211371
  H         2.4904753855        9.1300183719       30.9258922785
  C         4.2720325574       10.3193686253       30.0411108548
  H        -4.0544620810        8.9895131124       26.4442636457
  H        -4.5755616509        9.0678871049       28.1681380623
  C        -5.5193438730       10.4331877675       26.9976763578
  N        -1.4047137798       16.3599968887       30.6587887690
  C        -1.8653735814       16.1156396396       32.9787766760
  C        -2.1857296000       13.9615306107       33.9899418762
  H        -1.8504031468       12.2289657885       32.8305852509
  H         6.0555428161       13.5945618647       18.1022979390
  H         7.1062118501       12.3403071102       18.8012907313
  H         5.7070526875       12.6310676398       19.6143247679
  S         4.2868119616        9.5068422794       14.1650294976
  C         3.7811032442        6.9258554135       13.7933727954
  H         4.6036312785       10.6134976491       29.0800943415
  H         4.3223520874       11.1932324905       30.6818045432
  C         5.2720024781        9.4023298893       30.7327190718
  H        -5.1935603885       11.2334924873       26.3339510559
  H        -5.8454021489       11.0960979588       27.7895673521
  C        -6.6610966997        9.5267675543       26.4523374713
  S        -1.3551202528       17.8481910078       31.2604847574
  N        -2.0468912895       17.5077167285       32.7297561602
  C        -2.2900753734       15.3961473112       34.1108138066
  H        -2.4168523181       13.4104884067       34.8947685674
  C         4.4321229387        8.6769779545       12.6240052020
  N         4.1895493904        7.3569723196       12.6293401532
  O         3.6858811942        5.7909594417       14.1487259955
  H         5.1644967360        9.2180998668       31.8128053331
  H         6.2656798697        9.8574290556       30.6537714047
  C         5.3059183463        7.9773298687       30.1629799782
  H        -6.4354868688        8.7026242972       25.7544976170
  H        -7.1236490179        9.0514793341       27.3017553218
  C        -7.6842588289       10.5092200184       25.7233969992
  C        -2.6902674649       16.0903233546       35.2958026600
  S         4.8573167348        9.4731071067       11.0962439355
  C         4.1553359984        6.5150795805       11.3749143479
  H         4.3865747143        7.5027424258       30.4358966420
  H         5.4367137627        8.0616321166       29.0351635376
  C         6.5159777684        7.0614855684       30.5112702851
  H        -7.3583801190       10.8403381633       24.7113195313
  H        -7.9292423061       11.4111698508       26.2690899396
  C        -8.9216008369        9.6973710405       25.5462488600
  H        -2.4152489155       17.0983309812       35.3465629067
  C        -3.2602864794       15.6522080703       36.4637584347
  H         4.9704562493        6.9053711872       10.8389869859
  H         4.4542572983        5.4908749925       11.5632158291
  C         2.8096084577        6.5588427621       10.6672208596
  H         7.1297433374        7.4385931196       31.3650560491
  H         7.2386169233        6.9942469942       29.7126823124
  C         6.0654106591        5.5844689141       30.8097047191
  H        -9.7052224883       10.1139592826       24.8609515346
  H        -8.6535688703        8.7451484852       25.2253626713
  C        -9.6169710597        9.5687834963       26.8563092864
  S        -3.8049357960       14.0758293305       36.8870803362
  C        -3.4572862991       16.6997977503       37.5250106267
  H         2.6188029610        7.5247648145       10.1627538505
  H         2.8147897924        5.8530467311        9.9073037396
  H         1.9210057689        6.3990779274       11.2923388454
  H         5.1857094006        5.3248813323       30.2358928041
  H         5.8629066131        5.6541586766       31.7952699898
  H         6.9044686570        4.8613221405       30.6083025803
  H        -9.3059900981        8.7783346426       27.4677499043
  H       -10.6497412388        9.3204743835       26.8771934341
  H        -9.5048033352       10.4531758527       27.5015734632
  C        -4.2044111947       14.8301761957       38.4337839051
  N        -4.0397084494       16.1920025991       38.5848820700
  O        -3.3248914691       17.9508526497       37.3545672609
  S        -4.4303392868       13.8516040730       39.9131032172
  C        -4.1087097207       16.8998636508       39.8540037558
  H        -4.0823982353       17.9518301405       39.6207828719
  H        -5.0235986915       16.6022046317       40.4223778725
  C        -2.8759829095       16.5457190521       40.6684949822
  H        -2.2888461835       17.4701258955       40.7611661071
  H        -3.3493915101       16.2572882321       41.6701202265
  H        -2.3831627683       15.7590469089       40.1311733585
