352
 i =    90100, time =    90100.000, E =        24.7362708269
  H         9.8703103275        7.0156605008       31.6165237558
  C        10.8923417973        6.9211687449       31.9517122522
  H        11.1332788453        7.9008342106       32.2720590020
  C        11.8790241518        6.4202675870       30.8893132296
  C        10.8451199190        6.0393770172       33.2357273740
  C        11.2678435477        5.2589846134       30.1044804516
  H        12.1786381671        7.2518769207       30.1990984953
  H        12.8531888087        6.1171675805       31.2599323720
  H         9.9122021890        6.1871221796       33.7645366886
  H        10.8061297447        4.9616006457       32.9707512369
  H        11.6109951926        6.2994556792       34.0001616558
  C        10.4142908292        5.7881900962       28.9884858155
  H        10.7045331714        4.5334634856       30.6827024157
  H        12.0229830545        4.6434956893       29.7231961640
  C        10.8476115854        5.6458488404       27.5603798224
  H         9.5194378392        5.1824745258       29.0246171103
  H        10.1746211005        6.8628260541       29.1643674800
  C         9.7880002512        4.8783733318       26.6285453600
  H        11.7947602305        5.1200898652       27.5206962915
  H        10.9876039885        6.6590137859       27.2116389169
  C         8.4889551445        5.6268779012       26.2194813783
  H        10.3068760196        4.4411743527       25.7950213274
  H         9.3844408079        3.9329996605       27.0659007064
  C         7.3936907871        4.7762434774       25.5069801703
  H         7.9205498151        5.9437597084       27.1260256416
  H         8.6709426414        6.4896024469       25.5946045563
  C         7.0832802823        3.4146360631       26.2527589714
  C         7.7867671784        4.0654965717       24.3356482101
  C         6.1572026326        5.6113588069       25.1236895698
  C         7.2733385516        2.3435668551       25.4139597077
  C         6.6647612597        3.0961033376       27.4921525740
  C         7.6596053852        2.7519240315       24.1740822362
  C         8.2855840922        4.7273648278       23.1853520412
  H         5.6771271813        5.0005305507       24.2976258150
  H         6.3648008153        6.5839774143       24.6315575567
  C         5.1529353596        5.9720389345       26.2311043090
  S         6.8428270024        0.8748679158       26.1529641527
  C         6.4941983211        1.8096222738       27.5873886996
  H         6.3259962580        3.7954969172       28.2041690703
  C         7.8878460504        2.1089745005       22.9915784541
  H         8.3424404725        5.8026443149       23.2277928693
  C         8.5251275169        4.1332433772       22.0384310744
  H         5.2049058906        5.0935594342       26.8428982554
  H         5.4398731553        6.8318128736       26.8103283207
  C         3.6895896519        6.2339708526       25.7291113611
  C         6.0101888278        1.1962059101       28.8324102950
  C         8.3866474703        2.7772115306       21.8778826441
  H         7.8550875346        1.0600098001       22.9156900669
  C         8.8008429938        4.5763113150       20.7520301112
  H         3.4202254014        5.3889486180       25.1481223613
  H         3.6311758276        7.1040007032       25.0250783378
  C         2.7337085501        6.3373950051       26.9544936493
  C         5.9987960515       -0.2200666729       29.1996892651
  C         5.3343069718        2.0499875207       29.8810829240
  C         8.6690098912        2.1256430821       20.5424696652
  C         8.8066472911        3.5043727083       19.8546810709
  S         9.0849874023        6.0792370690       19.9274139714
  H         1.8260331734        6.9191860932       26.6855579380
  H         3.2659042966        6.6704040589       27.8034153079
  C         2.3638749733        4.9583854086       27.5327757638
  N         6.4484319630       -1.2683994125       28.3443174766
  C         5.6057074876       -0.7232017301       30.4555812080
  C         4.8145635002        1.5995381400       31.1258913844
  H         5.1058933209        3.0706646461       29.6470526369
  C         7.4093694027        1.3937926031       19.9982261206
  C         9.9649445361        1.3394014571       20.4529163885
  C         9.1224678606        3.9144144474       18.4947505923
  C         9.3236118106        5.2881141803       18.3674559796
  H         2.1505203193        4.1559792073       26.8253932005
  H         3.2568126346        4.6517416388       28.0733760292
  C         1.1808176743        4.9040747772       28.3381588108
  S         6.3696504190       -2.6584598299       29.0984519172
  N         5.7658394167       -2.1175632608       30.5559900392
  C         5.0321015334        0.1121474693       31.5042328453
  H         4.3547154705        2.3084675937       31.7310530845
  H         7.2145638339        0.4887740013       20.6108477640
  H         7.6894106754        1.1521895374       18.9810409387
  C         6.2177723634        2.2419483310       19.7269111803
  H        10.0743015262        1.0313962000       19.4279206683
  H         9.8538254262        0.3148901575       20.9517980819
  C        11.2323718015        2.0916174546       20.9673930161
  H         9.2573318954        3.2124136231       17.6511690457
  C         9.5857254949        6.1070863904       17.1553136901
  H         0.8564510299        3.8670233439       28.3418725458
  H         0.4343385724        5.4121179649       27.7446501684
  C         1.2380780556        5.6176555595       29.6282321251
  C         4.7619265862       -0.5057769589       32.7639873834
  H         6.5409564029        2.7945117543       18.8534237476
  H         6.0170347396        2.9619437831       20.5553895191
  C         4.9448532716        1.4253742357       19.5476571248
  H        10.9363223255        2.6458597341       21.8264380323
  H        11.5241230020        2.8285725109       20.1946666562
  C        12.4488392827        1.1963382839       21.2318793227
  C         9.7173382905        7.5064385098       17.0842017839
  C         9.7728086688        5.3740775239       15.8463782048
  H         1.6376207708        6.5684849180       29.4878161819
  H         0.2328415996        5.8492291029       29.9753962681
  C         1.9807833570        4.8834014567       30.8062663123
  H         4.6646457496       -1.5842322171       32.6320633580
  C         4.5544500624       -0.0890035736       34.0549092784
  H         4.4949107146        1.2717795319       20.5435779364
  H         5.3250631486        0.4590148127       19.1409758167
  C         3.8087253754        2.0193630755       18.6234750685
  H        12.0773483378        0.5825323644       22.0567334133
  H        12.5842314481        0.6559583359       20.2809846586
  C        13.6725663114        1.9440937831       21.6378639580
  N         9.4786923538        8.3993526778       18.1231470451
  C        10.0037178300        8.1408295296       15.9051924698
  C        10.0752791616        5.9879385439       14.7084880585
  H         9.6208055369        4.2916680962       15.9099915679
  H         1.8454227832        5.5141762878       31.6838216603
  H         1.5207956647        3.8879219218       30.9318263645
  H         2.9538639557        4.6835852193       30.5634337923
  S         4.4510632094        1.5713705586       34.4716968458
  C         4.5917656850       -1.0806037003       35.1962331223
  H         3.3560925988        2.7137278885       19.2297261700
  H         4.2588313459        2.4699112264       17.8136036004
  C         2.8168612188        0.9395824262       18.1680814189
  H        13.4204104014        2.8110878884       22.2382084071
  H        13.9860313492        2.3531259383       20.6451866275
  C        14.6370565335        1.0455158953       22.3105686661
  S         9.7435996194        9.9187206504       17.5733764592
  N        10.1191267409        9.5697903386       16.0627006936
  C        10.1896179008        7.5018184661       14.6171264521
  H        10.1993745273        5.3718522730       13.8430378168
  C         4.1941625679        0.9071634526       36.0716824105
  N         4.2678763087       -0.4424287686       36.3405500840
  O         4.8263926967       -2.2508437340       34.9961713571
  H         1.9334823543        1.4822274722       17.7569191422
  H         2.4648368192        0.2896500338       18.9765637246
  C         3.4187027063       -0.0115110582       17.0907538119
  H        14.2007366014        0.2859244374       22.9327854759
  H        15.2896866387        0.5292023933       21.6147625338
  C        15.6227712925        1.8965068674       23.0953880787
  C        10.6143259594        8.2565382601       13.4709293741
  S         3.8225287877        1.8601079322       37.5368458608
  C         4.2832857749       -1.1148246164       37.6249848157
  H         3.1454653232        0.2260490961       16.0777019213
  H         4.5548670214        0.1515771643       17.0323399548
  C         3.1026793376       -1.4516216165       17.3333919132
  H        15.2070256761        2.1312584051       24.1208877583
  H        15.7264100940        2.9004735806       22.5812669194
  C        16.9261206720        1.3025801472       23.5216309415
  H        10.3746975013        9.3059509962       13.5126153556
  C        11.1334040739        7.9105496361       12.2565413314
  H         3.6599892547       -0.7802954872       38.4678062191
  H         3.9484580761       -2.1325424112       37.4954080813
  C         5.7265333304       -1.0269570477       38.2044034532
  H         3.3450812974       -1.8597762638       18.3108993716
  H         3.6531320741       -1.9770616039       16.5301893928
  C         1.5459370147       -1.6673696710       17.1712885885
  H        17.3258630592        1.8053549617       24.3909916930
  H        16.8622615021        0.2394592401       23.7053101340
  C        17.9579577612        1.4785371837       22.3688950555
  S        11.4514045744        6.2885589583       11.7295625356
  C        11.3502767799        8.9846333062       11.2616462390
  H         6.4118271336       -0.3836483031       37.6577898495
  H         5.5870273910       -0.4930965717       39.1437278372
  H         6.3410451359       -1.9348881054       38.3159420837
  H         1.2537188965       -1.3303150066       16.1916549915
  H         1.0736465116       -1.1517092764       17.9810950940
  H         1.3544391298       -2.7404859096       17.3709499993
  H        17.5012800923        1.2112952696       21.4012508782
  H        18.9064977217        1.0300013991       22.4900035932
  H        18.0842282207        2.6040815969       22.2411768247
  C        11.9220030682        7.0133685062       10.1809270474
  N        11.8468383756        8.4018038534       10.1314222519
  O        11.0797429759       10.1610965439       11.3341556654
  S        12.3261623270        6.1797282830        8.7086699904
  C        12.0306540368        9.1981794206        8.8994770219
  H        12.3761797919       10.2641847375        9.0616806318
  H        12.8675750731        8.6995502285        8.3138149706
  C        10.7056316274        9.1092710100        8.1636944620
  H        10.5941676228        9.8100756230        7.3235298800
  H        10.4043881360        8.0552190627        7.9385557315
  H         9.9779865710        9.5767250008        8.8749582996
  H        -3.6933819265       14.3459197853       15.9930283204
  C        -3.3774668143       13.3465396962       16.0627133268
  H        -4.3065760452       12.8898818973       16.2525148162
  C        -2.3680771080       13.3646210810       17.2172267778
  C        -2.8129003687       12.9029161460       14.7586672670
  C        -2.8753637237       13.7431183956       18.5911907836
  H        -1.8487498131       12.3861447700       17.2839967637
  H        -1.7285560925       14.2104018526       17.0926754032
  H        -3.5481416303       13.0301692713       13.9167095373
  H        -1.8625254220       13.3676277117       14.4921742586
  H        -2.5964453002       11.8211730074       14.7056012791
  C        -1.7736522950       13.6907921986       19.6267027960
  H        -3.4949496891       12.8856555010       18.7774308322
  H        -3.4986928309       14.7162882375       18.6242810034
  C        -2.2837094918       13.5089093650       21.0818567788
  H        -1.2520466587       12.8138264330       19.3597295719
  H        -1.0041149988       14.4853756980       19.5499620010
  C        -1.2806704464       12.8492778407       22.0215874351
  H        -3.1734094821       12.8732500278       20.9786907542
  H        -2.6822795890       14.3997777891       21.5461672869
  C        -0.0991779609       13.7439436560       22.3828712372
  H        -1.7960440393       12.5636775299       22.9638200365
  H        -1.0555052361       11.8405505497       21.5789892298
  C         0.9809410535       13.0083307610       23.1878519859
  H         0.3177394891       14.1151091313       21.4948072131
  H        -0.5283181546       14.5280961715       22.9343401892
  C         1.3286633669       11.6712311684       22.5035321688
  C         0.5534342608       12.1751417248       24.3669435753
  C         2.2308822656       13.9710269637       23.4088499066
  C         1.0778479639       10.5299240228       23.2121716683
  C         1.8961631359       11.3815661493       21.2285436216
  C         0.6654633699       10.8635714653       24.4874083694
  C         0.0831095915       12.8018347108       25.5103094867
  H         2.2454251727       14.7020463902       22.6647501097
  H         2.0948384923       14.6063076549       24.3093817225
  C         3.6226648340       13.2896811238       23.5867515183
  S         1.2902715959        9.1144008388       22.2461132039
  C         1.9936300720       10.0180187155       20.9648106042
  H         2.0927788407       12.3155050519       20.6650210159
  C         0.3882123753       10.1628920851       25.6191029522
  H        -0.0092029898       13.8772790880       25.5266782044
  C        -0.1998029884       12.1643368050       26.6685632615
  H         3.8662217193       12.6696941455       22.7499302350
  H         3.5983296000       12.7727431301       24.5583462959
  C         4.7521795092       14.2969310549       23.8996565014
  C         2.3691943413        9.3837518961       19.6526010934
  C        -0.0536993508       10.8153475155       26.8164709127
  H         0.3318284562        9.0624583767       25.5516272736
  C        -0.6864989498       12.4974733103       27.8820894987
  H         5.2513018438       14.1068507578       24.8489552777
  H         4.2858644614       15.2462926490       24.1912462153
  C         5.7617337631       14.5403668216       22.7567127181
  C         2.4425263209        7.9827182600       19.4287745083
  C         2.6808378755       10.1727862698       18.4425739334
  C        -0.5216668007       10.0426913187       28.0107611337
  C        -0.8573915129       11.3513098016       28.6542965433
  S        -0.9179161789       13.9593088034       28.7726464748
  H         6.5765895510       15.1804427645       23.1864721639
  H         5.2458071439       15.0156508055       21.8699973810
  C         6.6314274475       13.2887136865       22.3618775384
  N         1.9724878489        6.9438818402       20.3343917073
  C         2.6167265365        7.3844315640       18.2209643173
  C         3.1895640733        9.5251362410       17.2847316417
  H         2.7406871983       11.2952137903       18.4923412453
  C         0.7031356729        9.2500148277       28.6978680682
  C        -1.8086457739        9.1721148189       27.9082500958
  C        -1.3049869875       11.6843870915       29.9222678377
  C        -1.3227614742       13.0387578683       30.2225435647
  H         7.4515587102       13.2886308837       23.0685582831
  H         6.1519944657       12.4297751002       22.6726490479
  C         7.2875537152       13.2150087202       20.9801262058
  S         2.0194307916        5.5098757634       19.6548328174
  N         2.4061190987        5.9953680394       18.1679786526
  C         3.1442679446        8.0295530182       17.0850169494
  H         3.4005618361       10.2212661965       16.4869396239
  H         1.0563235622        8.4586112834       27.9800252089
  H         0.4115881530        8.7506952035       29.6907878904
  C         1.8839748996       10.1507591637       28.9841027724
  H        -1.7301489423        8.4080831580       27.1741954534
  H        -1.9501003308        8.5372820388       28.7983515430
  C        -3.0417416645        9.8838205687       27.4952067753
  H        -1.5550218041       10.8450032501       30.5699547470
  C        -1.6460330150       13.6640518666       31.5280813025
  H         7.9706999541       12.4505886151       20.8770010377
  H         7.9326964604       14.0127619859       20.7462457062
  C         6.2918027557       13.2213967007       19.8268087792
  C         3.3847825271        7.3479792745       15.8194261537
  H         2.3870828198       10.6081028616       28.1087699900
  H         1.5500898078       10.9981831950       29.5219585830
  C         2.9691215219        9.4792058356       29.8370225520
  H        -2.8150490301       10.2676968866       26.4780658514
  H        -3.2021830825       10.8425678639       28.0197660701
  C        -4.1974515992        8.9489699928       27.5494621761
  C        -1.6728505673       15.1008730091       31.7266817637
  C        -1.9453847629       12.8263729647       32.7276915653
  H         5.6478967412       12.3167637468       19.8757983854
  H         5.5747505588       14.0364129366       19.9519953058
  C         6.8303224338       13.5595062041       18.4021965663
  H         3.3914854288        6.2570973770       16.0362334934
  C         3.4854067907        7.7342350531       14.4597331494
  H         3.2369062669        8.4853935098       29.3403613866
  H         2.6719851126        9.4015818277       30.8501596405
  C         4.2627069586       10.2854944999       29.9216917427
  H        -4.0706988887        8.1971713908       26.7969348675
  H        -4.2781847279        8.3140892526       28.5047515245
  C        -5.5656869599        9.7017198224       27.2909650185
  N        -1.4310636966       16.0823806084       30.7490067925
  C        -1.9077170349       15.6215643122       32.9779974526
  C        -2.2578799501       13.4280241709       33.9466187064
  H        -1.9943679213       11.7463339730       32.6156617510
  H         6.1852998189       14.3463125200       18.0307919815
  H         7.8678755982       13.7800278655       18.3766979993
  H         6.7213430035       12.6957184153       17.7889910258
  S         3.8393928620        9.2916844839       13.8630031873
  C         3.4439941611        6.6121579543       13.5355294269
  H         4.6896257011       10.3538620161       28.9832463950
  H         4.0695767307       11.2730652249       30.3914469662
  C         5.2813115717        9.6743853122       30.8696251904
  H        -5.5046578778       10.7419963203       27.3527880835
  H        -6.2191401123        9.6630708674       28.1931940304
  C        -6.1161248788        9.3635259375       26.0028107504
  S        -1.2041953309       17.5213969790       31.5310150751
  N        -1.8021793274       17.0273808471       32.9793082925
  C        -2.2493257319       14.9013524912       34.1560924640
  H        -2.6249793212       12.8389015005       34.7116429657
  C         4.1219733252        8.4179949730       12.3422621083
  N         3.9584831186        7.0297037086       12.3596039359
  O         3.1351087871        5.4918916083       13.8036029542
  H         4.9061203562        9.2382677265       31.7838035652
  H         6.0678204933       10.2464885623       31.2357231873
  C         6.0335671768        8.4640022048       30.2270308872
  H        -5.2923971122        9.4866979301       25.2619162748
  H        -6.2558266283        8.3031368276       26.0350587456
  C        -7.1982064963       10.2705918527       25.5549488916
  C        -2.7411467402       15.6466124687       35.3325016940
  S         4.6831755539        9.2085584868       10.8655687322
  C         3.9387131291        6.2201141307       11.1807948366
  H         6.3526466547        8.6198494085       29.1641744691
  H         6.9950422471        8.4872450506       30.8049880706
  C         5.3809002632        7.0961821227       30.5197066671
  H        -7.3856080160       10.3641518173       24.4718957851
  H        -7.0368860660       11.3343904624       25.9600481593
  C        -8.4559999333        9.6224058587       26.0509720749
  H        -2.3276680048       16.6521009528       35.4410299780
  C        -3.2343540929       15.2126873267       36.5049400757
  H         4.7422393120        6.6651588084       10.6199367332
  H         4.3394874953        5.1718875948       11.3815168487
  C         2.5511190056        6.3638960781       10.4556253551
  H         4.9053319346        6.7105809872       29.6434696254
  H         4.5496200121        7.1778134811       31.2688019959
  C         6.3070019524        6.0729313036       31.1956766839
  H        -8.3790880815        8.6396445710       25.6143499363
  H        -8.4587085256        9.5290184012       27.1235942866
  C        -9.7327934889       10.1879582405       25.6217661899
  S        -3.8407758814       13.6346744779       36.7606827677
  C        -3.2686134388       16.1217504460       37.6865724660
  H         2.3722651485        7.3924093322       10.1580573282
  H         2.3904096645        5.7687707294        9.5725483945
  H         1.8099661306        5.9883037140       11.1990069132
  H         5.8452427920        5.2315905747       31.6187811095
  H         6.9469737112        6.6394096982       31.8807911186
  H         7.0728726077        5.7351303307       30.4678734662
  H        -9.8345770547       11.1508922465       26.0054965215
  H       -10.5900654505        9.6598035415       26.0788417609
  H       -10.0949045756       10.1208807579       24.5288813007
  C        -4.0454815646       14.1133929401       38.5131359204
  N        -3.7154014368       15.4007618051       38.7845986670
  O        -2.7553972247       17.2915206844       37.7137768443
  S        -4.9142566779       13.2601720605       39.7480582154
  C        -3.7689140249       16.0326062551       40.0785597162
  H        -4.1698542918       17.0552888748       39.7846060707
  H        -4.4757218213       15.6644828922       40.8234892270
  C        -2.3636681510       16.0253353102       40.5679445874
  H        -2.3774792715       16.0944474661       41.6502337729
  H        -1.9386459753       15.0791931651       40.2505111322
  H        -1.6513038556       16.7787102777       40.2448277362
