352
 i =    17500, time =    17500.000, E =        24.9298735766
  H        12.4532285018        6.7733015486       32.8129995273
  C        11.7232072215        5.9973228388       32.5867108384
  H        12.3881728505        5.2711486697       32.1828240603
  C        10.8186744517        6.6084464972       31.5542912566
  C        11.0956688444        5.5134942634       33.9429611519
  C        11.2993663884        6.5782296893       30.0490671672
  H         9.8907915788        6.0497050022       31.5544168978
  H        10.5842739338        7.6183338331       31.9526592148
  H        10.6051295058        6.3258680713       34.4444759384
  H        10.2644437908        4.7791284854       33.8307061397
  H        11.8703535764        5.1662311588       34.6732770918
  C        10.1677511739        6.4134417013       29.0110240606
  H        12.1240894611        5.9287229366       29.8329028917
  H        11.7775670023        7.5699044356       29.8354868513
  C        10.7546190427        6.1962898031       27.5484697773
  H         9.4710513390        5.5615871761       29.2178247689
  H         9.4777888538        7.2431450340       29.0450249520
  C         9.8155111719        5.3535403875       26.6190708337
  H        11.6916531586        5.6544603069       27.6272914890
  H        11.0113071722        7.1600857180       27.0552718828
  C         8.5394231833        6.1239486173       26.1619895469
  H        10.3819541947        4.9612152749       25.7815817624
  H         9.5150619695        4.4991983999       27.1837482716
  C         7.5226091956        5.3168610254       25.3446720053
  H         8.0172179772        6.5251020808       27.0553233801
  H         8.8735045637        6.9034417414       25.4659037328
  C         7.1859425339        3.9737356238       26.0131401949
  C         7.9644407408        4.5548786246       24.1942063282
  C         6.1942864671        6.1128142882       25.0479349000
  C         7.4971141718        2.8310768027       25.3045567799
  C         6.5572611576        3.6941690466       27.2135183253
  C         7.9928395527        3.2302616892       24.0525410819
  C         8.4204827134        5.2662719300       23.0677984350
  H         6.4813418291        7.0021578816       24.4643894717
  H         5.7758498364        6.3156385259       26.0361594217
  C         5.0695498004        5.4014365876       24.3820349359
  S         7.0979651604        1.3613095113       26.1321730683
  C         6.4137338210        2.3097804359       27.4239247735
  H         6.0858830961        4.4752307312       27.7947392840
  C         8.3278073092        2.6395121367       22.8508590242
  H         8.3880357593        6.3361464367       23.1045865969
  C         8.7339392665        4.7575341270       21.8584102674
  H         5.4589782509        5.0809382130       23.3944218329
  H         4.9555379969        4.5023567553       24.9318609675
  C         3.8303754040        6.2857205778       24.2857201263
  C         5.9777702601        1.5472527964       28.6081095019
  C         8.6819686763        3.4044469071       21.7536462132
  H         8.2432229172        1.5331401779       22.8039456007
  C         9.0520504018        5.1789746336       20.5752181712
  H         3.1117834533        5.7556312947       23.6056162578
  H         4.1508549702        7.2974015870       23.8554562473
  C         2.9846636447        6.4824174035       25.5231069902
  C         6.1382808327        0.1832385982       28.9606241692
  C         5.3123482508        2.3644423732       29.6439851380
  C         9.0241920590        2.8075158479       20.4359991748
  C         9.2239330843        4.0983027269       19.7114655239
  S         9.3219706925        6.6703853752       19.7263362214
  H         2.2988291879        7.3759598104       25.4649663547
  H         3.7285453446        6.9852650867       26.1485096158
  C         2.2926752064        5.2749083908       26.1076415945
  N         6.5166856218       -0.8235192281       28.0509199689
  C         5.7501416388       -0.3085097018       30.1944799034
  C         5.0685100076        1.8475165238       30.9118354438
  H         5.1172108334        3.4221314447       29.4757392435
  C         7.9523064488        1.9707384386       19.6202620162
  C        10.3764988392        1.9809148629       20.4399809513
  C         9.5462998215        4.4665840744       18.3971404687
  C         9.5307235160        5.8380382340       18.2262959616
  H         1.5421689294        4.9303141328       25.3348225554
  H         2.8341429211        4.4641861798       26.3406398705
  C         1.4843509040        5.6885220186       27.4024226505
  S         6.4687336308       -2.3154486106       28.8184911585
  N         5.8540933205       -1.7294510676       30.2592022877
  C         5.2318016961        0.4443189266       31.2087517001
  H         4.6213044343        2.4377225038       31.6228860328
  H         7.7810226195        1.0794452009       20.1659807728
  H         8.1902011800        1.5661804173       18.5851598619
  C         6.5480347441        2.6524338028       19.6175479588
  H        10.4940398896        1.4250238200       19.5061889993
  H        10.1978515707        1.2062285672       21.1814007015
  C        11.5951128465        2.7690118898       20.9611550971
  H         9.7811509029        3.8438118420       17.5995442416
  C         9.7828777422        6.5763274972       16.9533082222
  H         0.9568623187        4.8582347291       27.6781083989
  H         0.8065979494        6.5101926113       27.2919798404
  C         2.4004815679        6.0275881781       28.6071482345
  C         4.9882334100       -0.1708271757       32.4684861805
  H         6.6839926236        3.3047676731       18.7489226746
  H         6.3954067728        3.2547210736       20.5214126601
  C         5.5489057018        1.5551018016       19.3679035745
  H        11.4467107331        3.3176433770       21.8859277761
  H        11.8539554163        3.5050331766       20.2017351256
  C        12.7118539767        1.7594221323       21.1917302192
  C        10.0083276684        7.9604005514       16.8082918034
  C         9.8553324796        5.7861962471       15.6876635844
  H         3.1761802185        5.1445967848       28.6939265967
  H         2.8798015672        6.9767116641       28.1905868314
  C         1.6910233729        6.2023556248       29.9658280579
  H         5.1410988302       -1.2434735895       32.5036856544
  C         4.6882713628        0.2901170528       33.7440703038
  H         5.4644135165        0.9548652800       20.2653128141
  H         5.8848329591        0.8021665141       18.7218935364
  C         4.1485920924        2.0604937640       19.0397738412
  H        12.5602814147        1.2282830852       22.0860812309
  H        12.6360293533        0.9912492266       20.3820688803
  C        14.0291759174        2.5030870701       21.1349133996
  N         9.8915635165        8.8648541772       17.8811094461
  C        10.2778386604        8.6038240109       15.6048537156
  C        10.2190951541        6.3674351220       14.4928028310
  H         9.6164467776        4.7361691402       15.7195883290
  H         0.8909991623        6.9534852599       29.9428721422
  H         1.1767097505        5.2889024644       30.2828029656
  H         2.4983475772        6.3821028213       30.7394003741
  S         4.4523359918        1.9557104193       34.1741290253
  C         4.7888529962       -0.6620715652       34.9290960795
  H         3.8710264650        2.6231058354       19.9772222325
  H         4.0601563756        2.7698613893       18.1545046147
  C         3.1065591498        0.9064237058       19.0662195455
  H        14.2289032437        3.0895955659       20.2058738382
  H        14.7566193607        1.7493445635       21.0011087903
  C        14.3493525463        3.3427298061       22.4352627676
  S        10.1769553447       10.3572555721       17.2538328878
  N        10.4756040216        9.8939708327       15.7314616929
  C        10.5124609737        7.8564003536       14.3988212648
  H        10.4880250820        5.7775636790       13.6094902050
  C         4.3147154294        1.3573788732       35.8327563984
  N         4.4758470098       -0.0052973495       36.0480607061
  O         5.1253660620       -1.8874200950       34.8184261531
  H         2.1520425648        1.2763750200       19.2073907834
  H         3.3139174250        0.3174374809       19.9589739711
  C         3.1708158482        0.0969350467       17.7823493431
  H        14.9591626737        4.1931998205       22.2693028723
  H        13.4336911629        3.8037329375       22.8484199248
  C        14.9660108089        2.4468554054       23.5230430026
  C        11.0139137751        8.5751113014       13.2775669192
  S         4.0113050647        2.3501060245       37.3033382827
  C         4.6106890731       -0.6567799224       37.3883401816
  H         3.1906954603        0.7858032566       16.9899324580
  H         4.1473518144       -0.4107464535       17.7085904512
  C         2.0586948984       -0.8988758420       17.6408540560
  H        14.7477795139        1.4129951918       23.3946997532
  H        14.6325981006        2.7952972786       24.4364786217
  C        16.4917273548        2.6203034491       23.4712537531
  H        10.9412063165        9.6743558746       13.3896254201
  C        11.5353529192        8.2263876193       12.0685039106
  H         3.8811903926       -0.1599277715       38.0555052782
  H         4.2060971914       -1.6683628338       37.4014823756
  C         6.0168395982       -0.7107114375       37.9051114717
  H         1.1974249789       -0.2299485797       17.4241479227
  H         2.0008433470       -1.5284233358       18.5815626496
  C         2.2198596436       -1.8518606815       16.4989080754
  H        16.7089948034        3.6241762440       23.7773473842
  H        16.8904926612        1.8904570369       24.2928189944
  C        17.2206757663        2.3238826781       22.1458803019
  S        11.9634175189        6.6305625261       11.5766132392
  C        11.7816800023        9.2574967619       10.9670697770
  H         6.8078343671       -0.6703943424       37.1856295226
  H         6.1369661407       -0.0070795425       38.7256358572
  H         6.0016650668       -1.6566750596       38.5129280478
  H         1.7158076896       -2.7453409290       16.7543636907
  H         3.3406806806       -1.9575403749       16.2685247298
  H         1.7813913858       -1.3565482613       15.6495697982
  H        18.2794993983        2.6400957720       22.1418726195
  H        16.7417737661        2.9642129529       21.3304948929
  H        17.1071996947        1.2847346608       21.9018588003
  C        12.4966738200        7.3588387885       10.0548734179
  N        12.3552848327        8.6622804334        9.9243409633
  O        11.6061381185       10.4603409715       11.0956636930
  S        12.9526552861        6.3448217491        8.6971905386
  C        12.5395618551        9.3766057353        8.6610878813
  H        12.8869093476       10.3928227430        8.8473535206
  H        13.3390010465        8.8057941849        8.1188198600
  C        11.3104168772        9.3838482417        7.7224679445
  H        11.6408071730        9.2511111324        6.6821927313
  H        10.5972680191        8.6249251413        7.9136595261
  H        10.8341026161       10.3722656796        7.8160191147
  H        -2.6659618813       14.9302393944       15.5730351027
  C        -2.8644013517       13.9120937253       15.8945302784
  H        -3.7651231286       13.8832599172       16.4128862000
  C        -1.8195760644       13.4374008147       16.8772854843
  C        -2.9461081145       12.9575678931       14.7398414991
  C        -2.0791920394       14.0556386221       18.2140405438
  H        -1.9023772200       12.3225068105       17.0993701473
  H        -0.8809468433       13.5694394449       16.3557296118
  H        -1.9527941508       12.6234563537       14.3300792653
  H        -3.5227101177       12.0637291579       14.9956800759
  H        -3.3843450015       13.3963145527       13.8916022156
  C        -1.1360696401       13.7303123121       19.3641801316
  H        -3.0196412275       13.6805278846       18.5292458550
  H        -2.1638762583       15.1071371923       18.1223119780
  C        -1.9222625801       13.4240331384       20.6704644963
  H        -0.4950407299       12.9982835204       18.9589171450
  H        -0.6533088413       14.6743076389       19.5172427085
  C        -0.9979735568       12.6376731436       21.5346994292
  H        -2.6531985953       12.6742941251       20.3608513712
  H        -2.4354584162       14.2539960591       21.2172856868
  C         0.0830751027       13.6091642292       22.2003844793
  H        -1.5935171259       12.1078027044       22.2058926571
  H        -0.4505704123       11.9385770530       20.8493798488
  C         1.2732617416       12.9886080209       23.0153413726
  H         0.4736566350       14.2858968644       21.4393325619
  H        -0.6083746028       14.1745139942       22.8456110872
  C         1.7250135004       11.6649844127       22.4142352489
  C         0.8219858052       12.2997261014       24.2686988621
  C         2.4846948955       13.9358387834       23.3016015952
  C         1.2938669415       10.5686561540       23.1530125799
  C         2.3061982324       11.3074273329       21.1947606135
  C         0.7669829110       10.9665677197       24.3510591913
  C         0.3918928563       13.0038962296       25.4038298999
  H         2.7700472221       14.3816405827       22.3089704624
  H         2.1459629850       14.8476333107       23.7718167994
  C         3.5807502968       13.2619530381       23.9967123176
  S         1.6877473167        9.0538773638       22.4823908761
  C         2.2943978142        9.9426435994       21.0317604206
  H         2.5972734277       12.1120519873       20.5701437897
  C         0.3058805842       10.3369394623       25.4913027686
  H         0.4127533871       14.0490268994       25.4275616461
  C        -0.0096472652       12.3978542570       26.5768991256
  H         3.8692846749       12.3335959901       23.5155947306
  H         3.1519512111       12.9372988532       24.9546229423
  C         4.8327808027       14.1276147782       24.2302671026
  C         2.7014109276        9.2078582487       19.7752139583
  C        -0.0981767294       11.0609843992       26.6208729903
  H         0.1938371691        9.2896611775       25.4961876031
  C        -0.4362218650       12.8096456731       27.8363108015
  H         5.5373107881       13.7757887177       24.9180783720
  H         4.4215178539       15.0944343843       24.5594200232
  C         5.5979101294       14.4644503406       22.9884150686
  C         2.6955560066        7.8019938977       19.5351620190
  C         2.9686853660       10.0577347014       18.5971780039
  C        -0.4067480214       10.3657805636       27.9669393154
  C        -0.7774378865       11.7032543858       28.6219834660
  S        -0.5592416086       14.2650011546       28.6951343152
  H         6.0307573382       15.4332944544       23.1349685015
  H         4.8226128663       14.6261580833       22.2340677108
  C         6.4017913056       13.2513798144       22.4235129069
  N         2.3948529876        6.8430218983       20.5249184964
  C         2.8913670630        7.1894363403       18.2820769615
  C         3.3528964835        9.4444653774       17.4097841172
  H         2.9685887272       11.1443940710       18.6582813903
  C         0.7925645698        9.8007717524       28.6835987992
  C        -1.6017419923        9.4322583895       27.8845879800
  C        -1.3308274651       12.1472171124       29.8243109790
  C        -1.2240976996       13.4844258111       30.0574849905
  H         7.1177387791       12.8706986197       23.1337973215
  H         5.6792754009       12.4223064804       22.1973843759
  C         7.0964026612       13.5833152299       21.0813172406
  S         2.4229488552        5.3680540335       19.7928326476
  N         2.6885253382        5.7968664072       18.2420057620
  C         3.3440863052        7.9285180984       17.1430549653
  H         3.4927298554       10.0309716825       16.5288332846
  H         1.2627209788        8.9769823817       28.1013041320
  H         0.4746246503        9.3291858307       29.6564975206
  C         1.8505568388       10.8181794498       29.0657910747
  H        -1.4076378763        8.5479723170       27.3569461019
  H        -1.8109098123        9.1711939432       28.9062950611
  C        -2.8792290243       10.1770666456       27.3523477669
  H        -1.6861951811       11.3997277945       30.5108815329
  C        -1.5101769858       14.1248444205       31.3952968629
  H         7.6377123595       12.6498171148       20.8105321335
  H         7.7935115735       14.4002994381       21.1366327091
  C         5.9978757261       13.7407709402       19.9929142498
  C         3.5261960886        7.3133175168       15.8234921454
  H         2.2834892761       11.2948296757       28.1470853736
  H         1.5459026081       11.6052304015       29.5853152346
  C         3.0023934730       10.1157191676       29.8023172542
  H        -2.7109433719       10.7164901169       26.3761173405
  H        -3.1125213856       11.0115759097       28.0324517301
  C        -4.1330586224        9.2485501057       27.2937983060
  C        -1.5732536566       15.5677479861       31.6775616495
  C        -1.8170924107       13.3203470681       32.6394583115
  H         5.3097917230       12.8810075588       20.0302169113
  H         5.3572447916       14.5721784486       20.2083820839
  C         6.6378825820       13.8437849306       18.5714872269
  H         3.4745671211        6.2821028990       15.7707830174
  C         3.8411273161        7.8925230576       14.5861830559
  H         3.6971780131        9.5163240439       29.1777621669
  H         2.6310039914        9.2904234566       30.5354358551
  C         3.9064742947       11.1044347279       30.5987663552
  H        -4.1132544480        8.4853724406       26.5093219573
  H        -4.2423193314        8.8045660965       28.2782759456
  C        -5.3799843674       10.1467284741       27.1085080179
  N        -1.3181826008       16.5466397933       30.6390680129
  C        -1.9403166811       16.0791294905       32.9068129755
  C        -2.1251699836       13.7963552440       33.8775648689
  H        -1.8338001036       12.2666383918       32.5907903113
  H         7.3133988714       13.0160381227       18.3177585773
  H         5.7753118886       13.9311194069       17.9113478608
  H         7.1544445127       14.7458352274       18.4441886089
  S         4.2700534781        9.5683031659       14.2192155053
  C         3.8411879726        7.0292519730       13.3490705741
  H         3.7435062193       12.0708026377       30.2323928920
  H         3.6267707365       11.2955926169       31.6747592988
  C         5.4041081050       10.6443621101       30.5035308413
  H        -5.2572383550       10.7816118899       26.2887430331
  H        -5.4910801305       10.8116283864       27.9407903496
  C        -6.6583166944        9.3647088070       27.0242998075
  S        -1.4696950788       17.9942625240       31.4307106895
  N        -2.0976386766       17.5186924662       32.8841943768
  C        -2.3007487638       15.2768530374       33.9860648163
  H        -2.4115474167       13.1569773504       34.6886787885
  C         4.3378183404        9.0701951327       12.5033319245
  N         4.3153586039        7.7010378076       12.3281899047
  O         3.6374851772        5.8669301835       13.3239664608
  H         6.0839222892       11.3130407674       30.9985749095
  H         5.6855054511       10.5500483944       29.4389760627
  C         5.6288961742        9.2128508913       30.9679725893
  H        -6.6305343568        8.5755746309       26.2034592187
  H        -6.8382173103        8.8192868640       27.9231041872
  C        -7.9825328555       10.2678347783       26.7918183368
  C        -2.6746927839       15.9118822781       35.1721954304
  S         4.8427691200       10.0869541153       11.1285965674
  C         4.2482175171        7.0634553018       11.0121679962
  H         6.0441199565        9.3085482697       31.9722139852
  H         4.6701673724        8.6424942745       31.1288328317
  C         6.6305296717        8.5073669010       30.0312364983
  H        -7.7648007892       11.2787723111       26.3139870285
  H        -8.3783579977       10.5024650100       27.7797671787
  C        -9.1265470190        9.5599708652       26.0120833214
  H        -2.2922057647       16.9567283055       35.2212480247
  C        -3.1001828736       15.5217484003       36.4214759904
  H         5.0514266216        7.5503294750       10.4154516562
  H         4.5624225201        6.0104932144       11.0043290682
  C         2.8446656855        7.1648611451       10.4218605266
  H         7.6082205496        8.9201232907       30.1682890644
  H         6.2002109748        8.4968631867       29.0047128266
  C         6.6881002208        7.0520160367       30.5125204216
  H        -9.1406268401        8.5515652460       26.4064942871
  H       -10.1280886252        9.9383296861       26.3418527357
  C        -8.8940855475        9.5449681043       24.4834203065
  S        -3.6766796333       13.9945935297       36.7451126649
  C        -3.2674987722       16.5701524120       37.4479084333
  H         2.6563228057        6.6370602743        9.5160304971
  H         2.1483608538        6.8158297671       11.1393032919
  H         2.6917210322        8.1915604730       10.3112144370
  H         6.5503755501        6.4593324533       29.6285290483
  H         5.9388850173        6.8325068420       31.2579723611
  H         7.6699634673        6.7467087460       30.9254835496
  H        -8.1477638968        8.7938889969       24.2718075306
  H        -8.5537496828       10.5400262959       24.1059238612
  H        -9.7687625347        9.1555283409       23.9735681805
  C        -4.1211540886       14.6908839601       38.2938099851
  N        -3.9031604142       16.0411329471       38.4428211532
  O        -2.9891625003       17.7668711190       37.3291639310
  S        -4.8524951333       13.7181751622       39.5630075852
  C        -4.2366335930       16.7211857766       39.6658640742
  H        -4.1955966042       17.8272737463       39.4604771249
  H        -5.3001658676       16.4796607677       39.9981246602
  C        -3.1484301048       16.5335694052       40.7467256998
  H        -2.2354862242       16.1849117489       40.3230872915
  H        -2.9493262758       17.5168833591       41.1948132260
  H        -3.3144042788       15.7138030108       41.4060913576
