352
 i =    93300, time =    93300.000, E =        25.3661162805
  H        10.5576053886        7.4274601203       31.4570963889
  C        11.3594150927        6.9243858383       31.9198164331
  H        11.9303123479        7.6241743274       32.5316336765
  C        12.2170922372        6.2074490590       30.8714920925
  C        10.7749874687        5.9677004583       32.8947443900
  C        11.4306553998        5.3612614069       29.7577216113
  H        12.9150112331        6.9998463954       30.4230741669
  H        12.8472545943        5.4713667735       31.3812831425
  H        11.6418358904        5.5991008261       33.4350140205
  H        10.1461707490        6.3270203683       33.6737004030
  H        10.3118806063        5.1717186269       32.4275110948
  C        10.6346670114        6.1167404858       28.7702500558
  H        10.7641386394        4.6291336334       30.2442872168
  H        12.0507428792        4.6601568756       29.2707107606
  C        11.0705821663        5.9357924129       27.2717149697
  H         9.6483363190        5.7178401995       28.8799885437
  H        10.3934633345        7.1639948593       28.9229483677
  C        10.0882414218        5.1808436804       26.4353591329
  H        11.9961866954        5.4130803965       27.2748398385
  H        11.4376648965        6.7850436700       26.6755311202
  C         8.7220278962        5.8564445248       26.1793234572
  H        10.5797434533        4.9754527891       25.4556800117
  H         9.9723086693        4.1963075020       26.7639560014
  C         7.6988491254        4.9624355583       25.4577021292
  H         8.3340635255        6.3127779623       27.1453385617
  H         8.9857838299        6.6778998037       25.4827752693
  C         7.4549180707        3.5692969547       26.0661556458
  C         8.1349138307        4.1990531990       24.2379276851
  C         6.3290480383        5.7051258452       25.1738200836
  C         7.5371401197        2.4391561432       25.2503704476
  C         7.0769510024        3.2210346652       27.3896861774
  C         8.0436799340        2.8718444572       24.0755440790
  C         8.4913165956        4.9344368227       23.1050948991
  H         5.9965505370        5.3775491214       24.1622618075
  H         6.5449616412        6.8382088970       25.1278469547
  C         5.2037831163        5.5881539869       26.1942086271
  S         7.0097433034        1.0044160001       26.0178985974
  C         6.6751550855        1.9141538660       27.4800825253
  H         7.0559948958        3.9844850143       28.1366766323
  C         8.2946019786        2.3640419988       22.8196227461
  H         8.4978166238        6.0060161217       23.2057503373
  C         8.7785285812        4.4640175801       21.8994696415
  H         5.0094751125        4.5815017840       26.5381193397
  H         5.4664087873        6.1364036650       27.1216891794
  C         3.8775172501        6.1164385966       25.5800526293
  C         6.0835394504        1.2838779067       28.6727014438
  C         8.7100016972        3.1483527937       21.7239175637
  H         8.1362977608        1.3651988008       22.5496611128
  C         9.1589561457        4.8889159929       20.6453517289
  H         3.4662197489        5.3839178882       24.8876138435
  H         4.0180345950        6.9399016375       25.0630129086
  C         2.8576020791        6.3031029353       26.6958553813
  C         6.0125732233       -0.1310380867       28.9589537976
  C         5.7685602658        2.2472907310       29.7042157506
  C         9.1468117011        2.4434788942       20.4408326915
  C         9.3792278690        3.8271282313       19.7618411442
  S         9.4596496109        6.3711938887       19.8639537057
  H         1.9521284176        6.7044188698       26.2738730420
  H         3.3506590033        6.9897936471       27.2797482195
  C         2.5469868824        4.9564638551       27.4164865131
  N         6.2726715564       -1.1170526940       28.0400353219
  C         5.8013941480       -0.6016201457       30.2415242196
  C         5.4191184751        1.7515982071       30.9329324767
  H         5.6660273403        3.2539108648       29.5824277035
  C         8.0869800667        1.7318391334       19.5749676847
  C        10.4688888304        1.6072855854       20.6838014628
  C         9.6681647626        4.2361078640       18.4398316653
  C         9.8141933321        5.5580190362       18.3803269685
  H         2.5691703913        4.1476581822       26.7770442824
  H         3.3570326082        4.8077446354       28.1277111893
  C         1.2651120174        4.8759635682       28.0789037800
  S         6.2772543580       -2.5234681488       28.8318124352
  N         5.8741255935       -2.0066176321       30.2987707500
  C         5.4330547463        0.2610218865       31.2928683274
  H         5.2172446551        2.5090430487       31.6608878061
  H         8.0617450962        0.6719623715       19.7730435971
  H         8.3569197643        1.7330932646       18.5128227727
  C         6.6572970548        2.3231962469       19.7752101404
  H        10.8188026516        1.1374340698       19.7681554048
  H        10.2927335975        0.7893761420       21.2943963255
  C        11.5839841232        2.4075335934       21.3900151900
  H         9.6944774716        3.4857370613       17.7106949962
  C        10.1821898241        6.3822692706       17.1802878207
  H         1.0469659291        3.8742845174       28.3703590982
  H         0.4815027327        5.0720995562       27.3786907047
  C         1.2225825642        5.8743730244       29.2424362652
  C         5.0810184330       -0.3055239034       32.5692702918
  H         6.5524798487        3.3426578636       19.5078609691
  H         6.2911496273        2.1935102691       20.7855030374
  C         5.7267556512        1.5721750914       18.8491290998
  H        11.2552097196        2.7500372712       22.3591221717
  H        11.8367472245        3.2516939624       20.8226628882
  C        12.8976218697        1.7100368356       21.5268490112
  C        10.2912499159        7.8156163833       17.1110301587
  C        10.4999310693        5.6185537679       15.9670882388
  H         2.0970950005        6.5525951150       29.1874188400
  H         0.3856510156        6.4949515095       29.1468078702
  C         1.2729954462        5.1034994545       30.5708572035
  H         5.3075521305       -1.3573037260       32.5705101685
  C         4.6969847169        0.2141558563       33.7723768617
  H         5.6364032090        0.5665740672       19.1452465662
  H         6.0500199450        1.4644479348       17.8457130975
  C         4.2908324661        2.2168774459       18.7428802584
  H        12.7647669147        0.9534121108       22.2892564000
  H        13.1590004730        1.1320141027       20.6135561818
  C        14.0459866273        2.5805854249       22.0856109410
  N         9.9741141418        8.7118643919       18.1538373309
  C        10.6847439913        8.4637094270       15.9461849063
  C        10.9046874449        6.3528036909       14.8763973542
  H        10.3854830576        4.5587805187       15.9230642987
  H         0.6565836731        5.6508908153       31.2430766853
  H         1.0880430697        4.0290200779       30.6448122540
  H         2.3231915413        5.2507285829       30.9047508614
  S         4.2749680863        1.8555014777       34.3174917349
  C         4.6428557936       -0.7855392076       34.8335119044
  H         4.2835855801        3.1383659237       19.3906161778
  H         4.1705127718        2.3475740078       17.6418475500
  C         3.2392775917        1.1720185141       19.0598315235
  H        13.7126453768        3.4186691466       22.7904820516
  H        14.4159891620        2.9608228839       21.0661574648
  C        15.0185049296        1.6644860377       22.7373692384
  S        10.2496284842       10.2026663273       17.5888093675
  N        10.8070180031        9.8529391664       16.1202851681
  C        10.9995494825        7.8633269080       14.7162934932
  H        11.0947435827        5.8624207459       13.9951683318
  C         3.9849151856        1.1168641852       35.9609525254
  N         4.3143239023       -0.2144804479       36.0222837345
  O         4.9154601912       -1.9606178176       34.7303310455
  H         2.3675620928        1.7569682167       19.3514701791
  H         3.7678781372        0.6983166012       19.8914995846
  C         3.0828585517        0.2675717279       17.8409188553
  H        14.6989886812        1.3475234717       23.7816311223
  H        15.1920285405        0.7794722735       22.1106102214
  C        16.3243607846        2.4877653358       22.8257154190
  C        11.3598364757        8.6224472441       13.5714880520
  S         3.4861280082        1.8567565881       37.4250015535
  C         4.1655164716       -1.0629984658       37.2557397679
  H         2.6415867980        0.7816684479       17.0074110366
  H         4.0530817047       -0.1024723903       17.3407036334
  C         2.0844180584       -0.8233811106       18.2225475781
  H        16.1480907060        3.4582803851       23.3487565310
  H        16.5720740328        2.8783934875       21.7800056944
  C        17.4972369466        1.8284642510       23.5013837794
  H        11.3038352939        9.6831101876       13.7660255848
  C        11.7594003438        8.2456666134       12.3485777504
  H         3.3293489091       -0.8395767801       37.8368740296
  H         3.9628598402       -2.1925853728       37.0688123528
  C         5.4515564521       -0.8971317196       38.0721823029
  H         1.2871359874       -0.6280473272       17.5673213629
  H         1.7031888768       -0.7029448353       19.2382232409
  C         2.6547623939       -2.2521874469       17.8650450052
  H        17.9748468638        2.5013668347       24.2026623462
  H        17.2770899983        0.9045235447       23.9058966842
  C        18.6162462859        1.5993332312       22.5332157857
  S        11.9499370676        6.6436803030       11.6329327230
  C        12.0615873111        9.3203829258       11.4421278787
  H         5.8639520583       -1.9416561453       38.1192442875
  H         6.0754779383       -0.1324255110       37.6641379965
  H         5.2028823236       -0.5042057908       39.0352087137
  H         3.5263121367       -2.5296716967       18.4063320108
  H         2.8849880035       -2.3096932475       16.8074890659
  H         1.8931167587       -2.9926457826       17.9904105818
  H        19.4490176195        1.1958467147       23.1023144691
  H        18.8950688306        2.5012905174       21.9187030646
  H        18.3325294895        0.8804309313       21.7605731156
  C        12.4302886164        7.5139679067       10.1515055660
  N        12.4662459758        8.8471801224       10.2579034884
  O        11.7379272669       10.5029596550       11.6333192297
  S        12.9007356646        6.6728477889        8.7112107245
  C        12.7683723734        9.7338340549        9.1593035364
  H        12.8430440963       10.7431065130        9.4690737669
  H        13.7990859768        9.5312653938        8.7337943988
  C        11.7163488316        9.7617097037        8.0832218595
  H        11.7322540864       10.7508974165        7.5084442040
  H        11.9198689874        9.0533318536        7.2524004713
  H        10.6622737139        9.6652874927        8.4230896579
  H        -3.3006152727       14.0414967741       16.6335589860
  C        -2.3783818083       13.3835917256       16.6484926012
  H        -2.8676200588       12.4815786746       17.0866313551
  C        -1.3579462592       13.9858900847       17.4873512352
  C        -2.0768795283       13.1440000758       15.1619520179
  C        -1.8009020425       14.0273761114       18.9415921933
  H        -0.3093159350       13.5345504527       17.3419439661
  H        -1.2678410096       14.9723268303       17.0503966243
  H        -1.6568519589       12.1845876158       14.9666768751
  H        -3.1261178802       13.2011892935       14.6474345493
  H        -1.5618017286       14.0064352317       14.8182948611
  C        -1.3166961361       12.9201683230       19.7573265635
  H        -2.8937785751       14.2378544450       18.9297382118
  H        -1.5502000129       14.9840964229       19.3964973777
  C        -2.0418412018       12.8914223832       21.1852670043
  H        -1.4937754999       11.8557889904       19.2973435782
  H        -0.2702955351       12.9439066521       19.8609525474
  C        -1.1472505911       12.4594461836       22.3117768007
  H        -2.8058306849       12.1300362245       21.1521848545
  H        -2.4253632178       13.8549048111       21.4634611486
  C        -0.0295108879       13.5479386139       22.6382009810
  H        -1.8111671874       12.3304220043       23.1653880530
  H        -0.7292112193       11.4111511546       22.0935213723
  C         1.1778412076       13.0186829937       23.3989364310
  H         0.2597663173       14.0324517233       21.7335870977
  H        -0.5076231604       14.3376115671       23.2637421927
  C         1.6195305828       11.6185080769       22.8044149336
  C         0.7494162767       12.2274559008       24.6171258469
  C         2.3792031250       13.9785235373       23.5920704898
  C         1.3346101476       10.5127141116       23.6335756332
  C         2.0404382498       11.2613541336       21.5145188582
  C         0.8287635960       10.8950028559       24.7927639470
  C         0.3555360131       12.8821868321       25.7613785359
  H         2.7735846614       14.4653077315       22.6850081817
  H         2.1155780890       14.9110147655       24.2509621252
  C         3.6419116035       13.3537271233       24.1370416848
  S         1.7194558782        9.0359300116       22.8043241244
  C         2.2440761371        9.9245705012       21.3908699769
  H         2.2828614883       12.0341562474       20.8123414002
  C         0.5415129128       10.2529609759       25.9281724442
  H         0.2543015871       13.9635037322       25.8701750035
  C        -0.0024251189       12.2173917898       26.9415600481
  H         3.9174221193       12.5231983756       23.5932171245
  H         3.4134268532       12.8247885570       25.0809571762
  C         4.7806072911       14.3322966698       24.3826355894
  C         2.7678973341        9.2948158430       20.1342105230
  C         0.1679374098       10.9079389027       27.1016200539
  H         0.6649569039        9.1915408651       25.9362510692
  C        -0.3730498924       12.6374523492       28.1849212831
  H         5.6009703830       13.7964062024       24.8785633226
  H         4.5319654892       15.0866254193       25.0547001671
  C         5.4333194248       14.8511415311       23.0927385177
  C         2.8893452961        7.9401857106       19.7799736660
  C         3.3380257846       10.1804883862       19.0419327395
  C        -0.1957973180       10.1498516442       28.3371890502
  C        -0.4631261650       11.5596091451       29.0316733394
  S        -0.6974392760       14.1088340258       28.9162497705
  H         6.3993269256       15.3537975357       23.2771135909
  H         4.8158037609       15.5168934920       22.5461081367
  C         5.7532205598       13.6545869323       22.2065900798
  N         2.6142646763        6.8740205477       20.6686835962
  C         3.1231441121        7.4428053318       18.5121859604
  C         3.6436313574        9.6596553723       17.7585454953
  H         3.4157460207       11.2092295413       19.2072157126
  C         0.9568884084        9.3637803309       28.9872876943
  C        -1.4709343847        9.3547550562       28.1548837738
  C        -0.8228185170       11.9652887403       30.3176415313
  C        -0.9021267715       13.3266996385       30.4154925659
  H         6.3713623343       12.9668214706       22.8018592909
  H         4.8697890789       13.2092483127       21.7414817661
  C         6.5626117416       14.2016939312       21.0179381526
  S         2.7692358245        5.4769065567       19.9934719704
  N         3.0002851918        6.0395950589       18.5053728897
  C         3.4439629862        8.2660019064       17.4196441764
  H         3.9342925262       10.2985196104       16.9775622917
  H         1.2069933981        8.6354382526       28.2282606911
  H         0.5508059541        8.7630862359       29.8300256449
  C         2.1233640465       10.1648603053       29.3536621527
  H        -1.2970279138        8.5996784855       27.3474456113
  H        -1.6799597898        8.7756546144       28.9740071910
  C        -2.7464050713       10.1308393180       27.9709029703
  H        -0.9928871476       11.2029554543       31.0275122891
  C        -1.4183997338       14.0274147595       31.6988163546
  H         6.8004498344       15.1998626411       21.3321969419
  H         5.7563600347       14.2874400820       20.2467022973
  C         7.7749440809       13.4430103533       20.4732340236
  C         3.7367268371        7.6133039279       16.1965557416
  H         2.4817875145       10.7630459002       28.4791248324
  H         1.9269865479       10.9348220120       30.0268508631
  C         3.1764485220        9.2823834147       29.9642665439
  H        -2.4466629960       10.9280832690       27.3517577438
  H        -3.0222877940       10.5441529410       28.9406500259
  C        -3.8881286184        9.2069680344       27.2936942625
  C        -1.4709718499       15.4626361216       31.7990678558
  C        -1.6349571966       13.1731080445       32.8766886428
  H         8.5785766259       13.8616150273       21.0487123042
  H         7.7360808779       12.3445019930       20.6864964109
  C         8.0033586009       13.6318397195       18.9370806040
  H         3.5462985005        6.5893986447       16.1572859416
  C         4.0846350801        8.1493478924       14.9863106573
  H         3.4717862007        8.4241915927       29.2965552002
  H         2.6688840163        9.0002230753       30.8784641441
  C         4.3942956762       10.1289482774       30.3613248687
  H        -3.4126435951        8.7478526301       26.5097614696
  H        -4.2314555104        8.4615035808       28.0707138159
  C        -4.9209282032       10.1957581058       26.7291225783
  N        -1.1822770669       16.3241314944       30.7536867759
  C        -1.9366843014       16.0274138280       32.9917723729
  C        -2.0464704687       13.7726019100       34.0182899662
  H        -1.5392211424       12.0855938647       32.8325057015
  H         8.3800232602       14.6012074936       18.5716630673
  H         8.6186985530       12.8271401291       18.4372383169
  H         6.9940586427       13.5653120216       18.5809148967
  S         4.4140700601        9.7948797926       14.6160289524
  C         4.2453077860        7.2344177489       13.8036839808
  H         4.8400435335       10.5921149888       29.4891665331
  H         4.1009702411       10.9675120861       31.0215331889
  C         5.3811226115        9.2470283727       31.1391560324
  H        -4.3502562774       10.8393969206       25.9671827039
  H        -5.2395443454       10.9173661949       27.4927639878
  C        -6.0187515347        9.4713173508       25.8380299944
  S        -1.2361915916       17.8641739285       31.4419225551
  N        -1.7433037623       17.4320436366       32.9503557081
  C        -2.1810699827       15.2635502954       34.1368095607
  H        -2.1549673761       13.1821115994       34.9337424274
  C         4.6490124554        9.2695239006       12.8949528911
  N         4.5182735775        7.9426728533       12.6752439276
  O         4.1976762667        5.9882523295       13.8819697454
  H         5.0400348961        8.9228491187       32.1242121497
  H         6.0844279051       10.0225589205       31.3846047620
  C         5.9675651710        8.0143999607       30.3803776010
  H        -5.6836776576        8.9914646654       24.9260693426
  H        -6.4667027406        8.6402644141       26.4224219669
  C        -7.0390812555       10.5645745426       25.5423745807
  C        -2.5109467018       15.9234490827       35.4085915697
  S         5.1070141570       10.2199011913       11.4162147113
  C         4.8626510762        7.1765460739       11.4300265930
  H         6.2402490500        8.0195532942       29.2910133576
  H         6.9048180315        7.9242209665       31.0136089657
  C         5.1145438130        6.8090491576       30.5992529890
  H        -7.4203071623       10.3443562221       24.5626002591
  H        -6.5306884514       11.4611008141       25.7213624221
  C        -8.0868506478       10.3081093897       26.5305575478
  H        -2.5261720052       16.9824278924       35.4164973621
  C        -2.9511223015       15.3883546468       36.6132938883
  H         5.6337488765        7.6921550333       10.8192789739
  H         5.3389273049        6.2594328488       11.6395832202
  C         3.5951541587        6.7931715310       10.6272349272
  H         4.6652721562        6.3877576157       29.6847655532
  H         4.3541451944        7.1172694625       31.3844489866
  C         5.9434498168        5.6598537884       31.2859828862
  H        -7.8499281336       10.0740227977       27.5817576232
  H        -8.6420760562       11.2605297373       26.6432894090
  C        -9.0872670028        9.3482427984       25.9576430000
  S        -3.6019304032       13.8269950104       36.8723974330
  C        -2.9608121745       16.3812256375       37.7013532106
  H         3.5942438790        7.3581656111        9.7053820348
  H         3.5722778648        5.7314476321       10.3464387640
  H         2.6397589352        6.9788689444       11.1187200659
  H         6.6882953065        6.0302005143       32.0212598983
  H         6.4083984013        5.1152420837       30.5367113572
  H         5.3209764621        4.8492813075       31.7668955788
  H        -8.5160541061        8.5731366247       25.4243344993
  H        -9.7649515902        9.8522325266       25.1936931149
  H        -9.6703006014        8.7917737505       26.6461044859
  C        -3.7744089857       14.3779257388       38.5226257290
  N        -3.5408954187       15.7304564984       38.7243272966
  O        -2.6760674251       17.6227148065       37.6666247063
  S        -4.4222929819       13.3533875873       39.7910130951
  C        -3.8095302924       16.3810312771       39.9438003830
  H        -3.6694380554       17.4938722632       39.8177511569
  H        -4.7990836307       16.2776569399       40.3622028440
  C        -2.8259727706       15.9302476374       41.0218686738
  H        -3.1576401444       14.9571473473       41.4347438223
  H        -1.7744129922       15.8835442324       40.7509440727
  H        -2.9775823427       16.5085244959       41.8739219597
