352
 i =    17000, time =    17000.000, E =        24.5936683818
  H        11.4057244528        7.1657063709       32.2312788143
  C        11.3107023727        6.0742468951       32.1738473395
  H        12.3068370378        5.7204466360       31.8980096386
  C        10.2799709192        5.7950465958       31.0984602111
  C        10.7880811584        5.2908319139       33.3934169322
  C        10.9581905095        5.8280708980       29.7613717716
  H         9.8250257284        4.8416961959       31.2816223587
  H         9.6010509326        6.6277671462       31.2827466426
  H        11.3625498627        5.5044014899       34.3129402081
  H         9.7626079519        5.6304277148       33.5949473143
  H        10.8285491410        4.2255017938       33.2532857149
  C        10.1015536299        5.2889304229       28.6760976179
  H        11.8273047929        5.1247705215       29.8656294842
  H        11.3002627135        6.7880386039       29.5071756467
  C        10.6714059735        5.5497832503       27.2549637891
  H        10.1002264026        4.2027861362       28.7728147369
  H         9.1695286224        5.7645720265       28.6115233393
  C         9.7552941313        5.0435844607       26.1488856159
  H        11.6336710535        5.0936289561       27.1372570729
  H        10.8730316622        6.6217417177       27.0810095670
  C         8.4866944226        5.9234058691       25.9207896318
  H        10.3029198988        5.0175188292       25.2182396441
  H         9.4535695434        4.0872319657       26.5122294350
  C         7.2943457712        5.1549150324       25.3216536658
  H         8.1286434162        6.5003388002       26.8073880900
  H         8.8198977155        6.7072627140       25.2231253198
  C         6.9285653795        3.8025091515       25.9411108866
  C         7.7562222043        4.4707496856       24.0641831189
  C         5.9991473040        6.0460388594       24.9794392015
  C         7.2645283430        2.7195246288       25.1545382471
  C         6.3145561343        3.4061656567       27.1368154602
  C         7.7425278402        3.1025083466       23.9576504782
  C         8.2780630374        5.1502003253       22.9626814275
  H         6.2549594729        6.6684127817       24.1720640085
  H         5.7564279976        6.7520879321       25.7709812527
  C         4.6677358269        5.3167005699       24.5547863706
  S         6.9888215375        1.2157768521       25.9231898297
  C         6.3666707143        2.0687084687       27.3431000252
  H         5.9652891934        4.1887994872       27.7970374949
  C         8.1642841693        2.5694781353       22.8056959662
  H         8.0859267528        6.1749579442       23.0231645974
  C         8.6617971765        4.6352525220       21.7677656456
  H         4.7303653805        5.0399872722       23.5084584751
  H         4.5962704908        4.3679770896       25.1036335556
  C         3.3987159498        6.1926538403       24.7619824045
  C         5.8825654591        1.3482927141       28.5442258161
  C         8.6631087556        3.2833540239       21.7087827934
  H         8.1063569526        1.4673233380       22.7648520264
  C         9.0428225367        5.1000797724       20.5159804480
  H         2.6497947276        5.8311617393       24.0503097524
  H         3.5568549860        7.1531264781       24.3107138679
  C         2.8375679017        6.1396424137       26.2274543500
  C         5.9904512436       -0.0649128622       28.7871801460
  C         5.3166992834        2.1016193323       29.6705085361
  C         9.0437198729        2.6128791563       20.3758996173
  C         9.3099789406        4.0423290953       19.6787946799
  S         9.2747749381        6.5711926056       19.7519911392
  H         2.2534358038        7.0482735804       26.4334096238
  H         3.7001963097        6.2836104098       26.8518114767
  C         2.0077315855        4.8989866232       26.6998920692
  N         6.5939123820       -0.9536849029       27.8753111955
  C         5.7351105548       -0.6431224259       30.0640293534
  C         5.0887632786        1.5517942023       30.9367195820
  H         5.0730577963        3.1664945321       29.5269716180
  C         7.9036866711        1.7833261124       19.6502128667
  C        10.3870009637        1.9180034978       20.4741061773
  C         9.7052244880        4.3961887595       18.3924214734
  C         9.5912175778        5.7608581048       18.2018379296
  H         1.1312871559        4.7916190281       26.0685401102
  H         2.7487411042        4.0611530871       26.8310265149
  C         1.6276786818        5.1127004374       28.1470286550
  S         6.4824806624       -2.4563656993       28.5419198798
  N         5.9447489204       -2.0538968699       30.0372474086
  C         5.3599870144        0.1378652679       31.2307238819
  H         4.4598486065        2.0881993602       31.5993008288
  H         7.3657755204        1.1336881830       20.3743706686
  H         8.3795318192        1.1010678983       18.9489246299
  C         6.8797310551        2.6985794481       18.9520916428
  H        10.7447781235        1.7588282717       19.4361043934
  H        10.3232646879        0.9039009234       20.9603065816
  C        11.5175679349        2.7309376389       21.1059760635
  H         9.8688390181        3.6240195628       17.6794381452
  C         9.8296886517        6.4544081908       16.8678628136
  H         0.7394951691        4.3366719264       28.2754545882
  H         1.2330231134        6.1376649125       28.3209977980
  C         2.7275318343        4.7412966814       29.2025639968
  C         5.0740548876       -0.4594463975       32.5180645744
  H         7.2741282313        3.0008273756       17.9568593307
  H         6.6578454680        3.5761251401       19.5402306230
  C         5.5836290735        2.0353992007       18.5274607780
  H        11.1632403868        2.8535015700       22.1000146218
  H        11.6452737302        3.7767308734       20.8291047549
  C        12.8687646621        1.9715155094       21.2030423101
  C         9.8530682492        7.8532005808       16.6721604581
  C         9.9869923605        5.6523798610       15.6450746547
  H         3.1822406714        3.7892632917       29.0387828589
  H         3.4711157439        5.4298479036       29.1565805980
  C         2.1697711188        4.5969768402       30.5728534277
  H         4.9910122992       -1.5097271068       32.3986173628
  C         4.6913700449       -0.0278779316       33.7522893547
  H         5.0226388727        1.7813796546       19.4125689428
  H         5.7570486508        1.0680162712       18.1005827592
  C         4.7401378164        2.9414878467       17.6826174377
  H        12.9635601642        1.1644513554       21.9891034591
  H        12.9441934472        1.4649645903       20.2734247170
  C        14.1236126594        2.8472282499       21.2408668944
  N         9.4971815583        8.7993067295       17.6294000093
  C        10.1814404151        8.4453895846       15.4355472055
  C        10.3661751386        6.2649040655       14.4523298771
  H         9.7065058776        4.5752463903       15.6135237594
  H         2.2657419858        5.5540146667       31.0837179022
  H         1.1171515842        4.3037499578       30.7570847273
  H         2.7151752242        3.8660111713       31.1169621881
  S         4.4920196225        1.6407531445       34.2263852401
  C         4.4999156596       -1.0160507498       34.8551131489
  H         4.6914240556        3.9092656407       18.1400103360
  H         5.2673414707        2.9638293618       16.7547635627
  C         3.3428825217        2.3577482720       17.3609153679
  H        13.9592510448        3.6691153206       20.6384979247
  H        14.9397939459        2.2719660552       20.8014825925
  C        14.3865539755        3.3107018399       22.7203337210
  S         9.6545775738       10.2376881467       16.9905043043
  N         9.9639846189        9.8454234755       15.4608337710
  C        10.5563422878        7.6991242775       14.3434718381
  H        10.5525895505        5.6261279365       13.6724017134
  C         4.0515423547        0.9894032457       35.8602360841
  N         4.2101216936       -0.3404886266       36.0266430442
  O         4.7364289459       -2.1693009454       34.6764391369
  H         3.0156413430        2.8985905367       16.4805859565
  H         2.6229654479        2.7606528498       18.1189619274
  C         3.2627696582        0.8486915454       17.2238590253
  H        14.9118131084        4.2916289788       22.6416229406
  H        13.4230909966        3.5335535066       23.0979513373
  C        15.1100818978        2.3748113926       23.7164472487
  C        10.8812886961        8.3611582725       13.1177870387
  S         3.9424711401        1.9672457540       37.2833576570
  C         4.0201130229       -1.0300892601       37.3060936500
  H         2.6739426745        0.7247282963       16.3445306363
  H         4.2036701175        0.3469744696       17.0579841059
  C         2.5217390643        0.2772410352       18.4202829195
  H        14.7628283482        1.3554652095       23.5591991229
  H        14.7741725212        2.6650706578       24.7321802352
  C        16.6104467753        2.3654740093       23.8743482802
  H        10.8761263769        9.4839363226       13.1402595876
  C        11.2718786990        8.0017311320       11.8573467262
  H         3.4346197214       -0.5316605511       38.0489498136
  H         3.5872229734       -2.0008179764       37.2458261303
  C         5.3535326961       -1.5207938779       37.9271036492
  H         1.6311895516        0.7612600476       18.6719176151
  H         3.0682684751        0.3674179900       19.3258961360
  C         2.3113434704       -1.1701204174       18.1319996277
  H        16.9346693620        3.2555362560       24.3935625012
  H        16.8607858057        1.5900373910       24.4690854412
  C        17.3478948923        2.2564682891       22.5389821960
  S        11.6058629239        6.4178858876       11.3616619411
  C        11.5304220585        9.0225688571       10.8248241808
  H         6.1209473600       -0.9389145052       37.3740953413
  H         5.4288199351       -1.2884187424       38.9915435874
  H         5.4250458801       -2.5565415490       37.8976841668
  H         1.8139028918       -1.8226014026       18.9157998586
  H         3.1522717139       -1.6276016592       17.7114329723
  H         1.4860732475       -1.2833062247       17.3962327913
  H        18.3851096353        1.9481252910       22.7680796087
  H        17.3147143016        3.0899703474       21.8926159367
  H        16.9524875685        1.3617332065       22.0322533235
  C        12.2047679783        7.1220062536        9.8249654793
  N        12.1043661893        8.4781460866        9.7331403277
  O        11.3321284114       10.2280549527       10.9350876572
  S        13.1814996552        6.3131321039        8.6185457678
  C        12.2874629793        9.2444093968        8.4862252262
  H        12.4054633316       10.2860818410        8.8031759490
  H        13.2279134384        9.0741978724        8.0219901131
  C        11.1708070373        9.0219711605        7.4800808308
  H        10.1819105565        9.0124762455        7.9560157333
  H        11.1586388437        9.8481170069        6.6947131264
  H        11.2600843383        8.0839755627        6.9795626896
  H        -3.4402495228       14.8934810759       16.3377797660
  C        -3.0669258407       13.8568801436       16.2652062713
  H        -4.0107145534       13.2982658042       16.6095436946
  C        -1.9622823712       13.6388755215       17.2884130841
  C        -2.5578674732       13.6590760098       14.8375380114
  C        -2.3548889469       14.0778618952       18.7473301518
  H        -1.8325539896       12.6038107685       17.4022816480
  H        -1.0130774329       14.1667583042       17.0334876569
  H        -1.4695613614       13.7530536470       14.7987962430
  H        -2.9235580129       12.6786636560       14.5432851409
  H        -2.9746590162       14.4689588693       14.1603948235
  C        -1.9455237529       12.9955881084       19.7288014854
  H        -3.4584165481       14.3129985395       18.7408216371
  H        -1.8457565799       15.1002053249       18.9511352435
  C        -2.2738999801       13.4608856881       21.1695343177
  H        -2.4851889591       12.0496368618       19.4569883366
  H        -0.8728916084       12.8482037084       19.7325610625
  C        -1.3939868842       12.9077803805       22.2378683530
  H        -3.3012944601       13.3573744765       21.2906850413
  H        -2.2114588419       14.4866244122       21.2563057023
  C        -0.1222088695       13.6829551178       22.4917693002
  H        -2.0016806744       12.6663992758       23.1428283678
  H        -1.0509365495       11.9485542603       21.9339838703
  C         1.0388431072       12.9105458814       23.2112075303
  H         0.2207487200       14.2081093737       21.5650200119
  H        -0.3060081872       14.5614423514       23.1062460652
  C         1.3542507976       11.5513568887       22.5354106817
  C         0.6246358345       12.1211008597       24.4441773912
  C         2.3447906711       13.8405900267       23.3422023726
  C         1.1143049655       10.4171531065       23.2868316599
  C         1.7906579258       11.1216674729       21.2998709335
  C         0.6434793414       10.7771779434       24.5450787065
  C         0.2714347031       12.7379159924       25.6297706075
  H         2.5063109915       14.2552992360       22.3536140606
  H         2.0363459273       14.6284900545       24.0809363199
  C         3.5946864888       13.0383664028       23.6788883334
  S         1.6687107716        8.9118792207       22.5152798594
  C         2.0771524296        9.7989711103       21.1017951355
  H         2.0412625229       11.8712386921       20.5454045704
  C         0.2161959680       10.1727566303       25.6833187329
  H         0.3865039360       13.7697431649       25.4787634060
  C        -0.0797617378       12.2167770821       26.7964783425
  H         3.8626768533       12.2135085361       23.0493182279
  H         3.2431770115       12.5229516631       24.5793814010
  C         4.8191915173       13.9245739013       23.8728486816
  C         2.4767882504        9.1439817108       19.7989019658
  C        -0.1190119812       10.8843652474       26.8796375618
  H         0.3430309246        9.1482559179       25.7584547524
  C        -0.5547721537       12.5653376714       28.0332696067
  H         5.5175503918       13.3891842575       24.6303760489
  H         4.7016702951       14.9206528223       24.3085180531
  C         5.5104887745       14.2218006597       22.5679500548
  C         2.4864919785        7.7531635543       19.5549717827
  C         2.9399316647        9.9384023675       18.6115714660
  C        -0.5469251305       10.1479122800       28.1002647410
  C        -0.8259838551       11.4367503668       28.8097746861
  S        -0.9195723804       13.9479016158       28.8576850310
  H         6.0758226617       15.1761053484       22.6801119359
  H         4.7249741725       14.4019559262       21.8483206060
  C         6.5428202503       13.1299715299       22.1627959978
  N         2.2621737821        6.7302220376       20.5219212253
  C         2.8376291192        7.1780453520       18.3515187215
  C         3.3080920932        9.3832113097       17.3740493747
  H         3.0512475258       11.0045355659       18.7471565474
  C         0.5529693927        9.2767127830       28.8159542641
  C        -1.8239937537        9.3937609912       27.8333475767
  C        -1.3449586629       11.7651811337       30.0987006918
  C        -1.3743539994       13.0707959197       30.3193122784
  H         7.1761554375       13.0069909287       23.0631743043
  H         6.0773795228       12.1576227535       22.0989509357
  C         7.3818488500       13.4537290040       20.9967505962
  S         2.2159696424        5.2714887609       19.7578012280
  N         2.5716971557        5.8238428277       18.2683307275
  C         3.3215801238        7.9295811495       17.1780321489
  H         3.5125984983       10.0815176396       16.5443792730
  H         0.9337340298        8.5414442271       28.1547517391
  H         0.1079310018        8.7673355039       29.6218292271
  C         1.7826781419       10.0706779068       29.3316653344
  H        -1.7778165612        8.6983591712       26.9485196606
  H        -2.0927861068        8.7819298974       28.7316968134
  C        -3.0633962326       10.2267645183       27.5307163130
  H        -1.4713324348       10.9252511437       30.8245222613
  C        -1.6095276439       13.8159064712       31.6465585586
  H         8.0022412327       12.6070940385       20.7723556729
  H         7.9989057721       14.3639595532       21.2325848412
  C         6.4867583193       13.7372756786       19.7625413751
  C         3.6518965813        7.2020863825       15.9892585625
  H         2.2612115126       10.5880602021       28.5229650322
  H         1.3667565707       10.8305345330       30.1536773554
  C         2.7989081121        9.1138055576       29.9162840152
  H        -2.8978176111       10.9121598543       26.7648916049
  H        -3.3981949156       10.6770265439       28.4298847865
  C        -4.2581687042        9.4196443842       26.9742819226
  C        -1.8056819646       15.2012960086       31.8137286018
  C        -1.5759468046       13.0023817779       32.9129738120
  H         5.8057574978       12.8894461425       19.5923410206
  H         5.9174601592       14.6659940507       19.8318628412
  C         7.2763228958       13.6869593456       18.4826805014
  H         3.7743805402        6.1322819961       16.1087459980
  C         3.8415055018        7.6120618408       14.6989462863
  H         3.0216801784        8.4427988579       29.1309088839
  H         2.3106033275        8.4887893684       30.6372347950
  C         4.0631428897        9.7615012265       30.3810044189
  H        -3.9635278351        9.1009181454       25.9766225717
  H        -4.4734001197        8.5221771031       27.5295367800
  C        -5.4826446389       10.3943521710       26.8347545902
  N        -1.6210306944       16.1104947237       30.8225802171
  C        -2.0054962498       15.7666890951       33.0449917629
  C        -1.9023767468       13.5808835224       34.1328713488
  H        -1.4257573697       11.8759683067       32.8898546364
  H         8.1348375347       12.9984160417       18.4703008675
  H         6.6525842067       13.2983855668       17.6915204557
  H         7.6489106415       14.6940445299       18.1833937710
  S         3.9293024370        9.1797204557       14.1411848077
  C         3.8034315472        6.6035192531       13.6395004922
  H         4.3693635580       10.6200871610       29.7035663838
  H         3.8828478039       10.1687219842       31.3719659199
  C         5.2231324524        8.8127454829       30.3167089825
  H        -5.0916016002       11.0686616704       26.0113334860
  H        -5.5908617786       10.9668747262       27.7321811539
  C        -6.7916533341        9.6317799815       26.4356976004
  S        -1.6691516182       17.6047338558       31.4549261805
  N        -2.0398612813       17.1638635134       32.9866593413
  C        -2.2408732924       15.0341393204       34.2136222177
  H        -2.0362961957       12.9522648604       34.9766169517
  C         4.1183825387        8.5507935209       12.5449816634
  N         4.0525493048        7.1803137361       12.4696255934
  O         3.6613534032        5.4446526305       13.8168355608
  H         6.1210810006        9.2661873254       30.7035123605
  H         5.3259203028        8.5223856534       29.2341711230
  C         4.9788353739        7.5958018878       31.1223953823
  H        -6.6777313595        9.3880718711       25.3822185332
  H        -6.8389086115        8.7341435377       27.0546437192
  C        -8.0572359241       10.4580081175       26.5550881507
  C        -2.4560711394       15.7613560826       35.3971057031
  S         4.5407518562        9.4073232754       11.0496893026
  C         3.9719797875        6.4078788043       11.2565424333
  H         4.8482606638        7.8407091478       32.1417890897
  H         4.0621902645        7.0322320313       31.0038796398
  C         6.2334046612        6.6226081874       30.9848069343
  H        -8.0544988607       11.4950360108       26.1028089294
  H        -8.3127654869       10.6342398718       27.6313614913
  C        -9.2356433847        9.6915426130       25.9583246598
  H        -2.1944074715       16.8343476135       35.4077578411
  C        -2.9140249223       15.3859121113       36.6375859756
  H         4.7032210595        6.6561250925       10.4995735506
  H         4.2486743184        5.3334049403       11.4857184743
  C         2.4874938828        6.4620406257       10.8043886394
  H         7.1832647890        7.1984785004       30.9195162824
  H         6.1573377228        6.1330040582       30.0250389919
  C         6.4995269006        5.7214756383       32.2023079896
  H        -9.5046177297        8.8285836227       26.5465489073
  H       -10.0922507436       10.3001979773       25.9452198036
  C        -9.0687721595        9.3542346686       24.4714063049
  S        -3.6766674845       13.9297432411       37.1867839389
  C        -3.0228140881       16.5151351537       37.6444163166
  H         2.1480229438        7.4402091259       10.8943890769
  H         2.3608298442        6.1343584124        9.7576398452
  H         1.8216141511        5.7856115365       11.3310239913
  H         7.2590294469        4.9574031540       31.9529059564
  H         5.5579330768        5.1417183159       32.5639406812
  H         6.8531324381        6.2848248679       33.0421699155
  H        -8.2917922223        8.6191358162       24.3744394103
  H        -8.5874679492       10.2692173383       24.0472611135
  H        -9.9654222550        9.1204852191       23.9415098515
  C        -3.9859673841       14.7702409400       38.6983197068
  N        -3.5550910341       16.0430961438       38.8051792561
  O        -2.5978317612       17.6248545765       37.5220257543
  S        -4.6892628831       14.0202736364       40.1588024029
  C        -3.5013184576       16.8296602149       40.0457507935
  H        -3.7847802470       17.8189183054       39.9004869448
  H        -4.2062084221       16.4400294199       40.7465732872
  C        -2.1378003706       16.7015530876       40.7702418173
  H        -1.7376746149       17.5140344696       41.3673953682
  H        -2.3642748424       15.9292678539       41.4552627874
  H        -1.3772894921       16.4247700554       40.0551943036
