352
 i =    14900, time =    14900.000, E =        24.5266958756
  H        11.8465383216        6.7804312795       31.8861435446
  C        11.6073253881        5.7678882939       32.2674799179
  H        12.5743993969        5.1983191535       32.3729651341
  C        10.7015336135        5.3514587454       31.0921361390
  C        10.9047605847        5.6351633589       33.6452553118
  C        11.3923185019        5.5281845844       29.6712517197
  H        10.5359427315        4.2999900775       31.1653111792
  H         9.7345479151        5.9863475703       31.0605779407
  H        11.1589146677        6.5233973794       34.2121768704
  H         9.8583107976        5.4206458665       33.5368559590
  H        11.3070788689        4.8287563594       34.2959459212
  C        10.4554470877        4.8304435508       28.6915974252
  H        12.3834106983        5.0879328423       29.5640656509
  H        11.4756578779        6.5856938936       29.4662953045
  C        10.7108187709        5.2513065803       27.2094951885
  H        10.6039665351        3.7474276761       28.8216218621
  H         9.4496133327        4.8971074626       29.1432261842
  C         9.5499379304        4.7467123435       26.3308407207
  H        11.6542485600        4.7637107255       26.9375780761
  H        10.9634852881        6.3045519097       27.1683746512
  C         8.4013074336        5.7114584149       26.0219077393
  H        10.0994792744        4.6098024339       25.3656724780
  H         9.1383963413        3.8543647100       26.7950346602
  C         7.2189324573        4.9019523604       25.3658411628
  H         8.1963382522        6.2551508623       26.9693747856
  H         8.7051571704        6.4851485068       25.2937790633
  C         6.8950853717        3.5623038257       26.0794554571
  C         7.6357732572        4.0906849046       24.1825634457
  C         5.8716728783        5.7350496155       25.2878301456
  C         7.1697457322        2.4452204659       25.3372918040
  C         6.3459706728        3.2509710032       27.3371566723
  C         7.6893291211        2.7389666192       24.1460461974
  C         8.1684144535        4.7397003474       23.0782557132
  H         5.9269499261        6.4036835908       24.3888581673
  H         5.6935808493        6.2362855482       26.2558269022
  C         4.6321529336        4.9301334846       24.8919727211
  S         6.8923607255        0.9585918031       26.1666693298
  C         6.3204045991        1.9124158188       27.5330275490
  H         6.0979634287        4.0629628325       27.9230349551
  C         8.1801345496        2.1378661288       22.9968660390
  H         8.0940895725        5.7941711767       23.0588183884
  C         8.5583617350        4.1858487931       21.9454957075
  H         4.8087346675        4.6756694349       23.7848908555
  H         4.5927143352        4.0532018164       25.5182196995
  C         3.2163585453        5.6709944475       24.8927812337
  C         6.0041924252        1.2296560635       28.7722520708
  C         8.6024092356        2.8587653446       21.8274692108
  H         8.2076664375        1.0704326658       22.8368572624
  C         9.0659689550        4.5615424433       20.6978465235
  H         2.6394122590        5.2352220833       24.1763776274
  H         3.3332378255        6.6793581755       24.5142535578
  C         2.6844557685        5.9821437008       26.2515909964
  C         5.9389232051       -0.0941776842       29.0492967890
  C         5.6924458626        2.2328759856       29.8788518601
  C         8.9806303563        2.1932677127       20.5682800074
  C         9.2148770672        3.5174708160       19.7870912593
  S         9.3538690233        6.1072914840       19.9744161053
  H         1.9308347279        6.7957987416       26.1668610924
  H         3.4342103899        6.3445329210       26.9393255927
  C         2.0865997344        4.7061843838       26.8266487341
  N         6.1022466226       -1.1407345091       28.1492000969
  C         5.5915205627       -0.5396849360       30.3153131360
  C         5.2018954597        1.7505885203       31.0961932845
  H         5.6818993402        3.2733004881       29.7739696607
  C         7.7754970808        1.4276301738       19.9609142513
  C        10.2709160592        1.3674959099       20.7944614342
  C         9.5866586819        3.9470992827       18.4796909055
  C         9.7287513765        5.3238965272       18.4302631737
  H         1.4581652684        4.2611497323       26.0266651741
  H         2.8112155364        3.9725665783       27.1603983692
  C         1.1964957205        4.9145365392       28.1439310759
  S         5.9962981332       -2.5118249506       28.9731107585
  N         5.6410097775       -1.9213448844       30.4229818225
  C         5.1820783073        0.2411740888       31.4022331253
  H         5.0083832378        2.4679090236       31.9017145523
  H         7.3564272817        0.8664875279       20.8217398423
  H         8.0717594016        0.7164684191       19.1890894416
  C         6.7019961489        2.2691598638       19.2968098659
  H        10.5182979035        0.8013629808       19.9392735158
  H        10.1762141538        0.6287462257       21.5304330267
  C        11.5158720165        2.0784686476       21.1473969626
  H         9.8168975742        3.1956813533       17.7518449507
  C        10.0136826222        6.1001461335       17.2114734792
  H         0.7244124255        3.9216315920       28.5306495753
  H         0.4773519370        5.6599183017       27.9272307016
  C         2.0250835275        5.6255856910       29.2486255281
  C         4.9690889196       -0.3664591707       32.6443490400
  H         7.1025480710        2.9308002775       18.5721528456
  H         6.3377207945        2.9531430629       20.0294690380
  C         5.5618097532        1.4136773643       18.6355591604
  H        11.4749144722        2.3315946935       22.1875950235
  H        11.5058767844        2.9806021882       20.5401563793
  C        12.7735069830        1.3118516627       20.6549451452
  C        10.0270126942        7.4786523450       17.1064317744
  C        10.2074469885        5.3793434352       15.9732010788
  H         2.9153877584        5.0422591431       29.3072847725
  H         2.3113989643        6.5327110671       28.8860693832
  C         1.2637873176        5.6204182301       30.5677390464
  H         5.0514173166       -1.4502855662       32.5714781154
  C         4.7250069579        0.1237473726       33.9513717743
  H         5.0820593315        0.7159152770       19.3687189201
  H         6.0071001033        0.9507316103       17.7760319003
  C         4.4040510713        2.3390690885       18.0717037294
  H        12.8281723835        0.3196042019       21.0754933229
  H        12.6095124654        1.2386102396       19.5523651876
  C        13.9541021841        2.2069785682       20.9273905471
  N         9.8404037826        8.4084258064       18.1829180308
  C        10.3125963758        8.1733575049       15.9466580083
  C        10.5039184791        6.0418414817       14.7840539587
  H        10.1508449505        4.3742565836       15.9365808849
  H         0.2392334127        6.0524763876       30.5526941939
  H         1.0673808893        4.5663634634       30.7483397717
  H         1.7681183646        6.0286088055       31.4492141103
  S         4.4119541997        1.7618504020       34.4165827760
  C         4.7496438449       -0.8557549599       35.0777523012
  H         4.5373692528        3.2557977056       18.5601287759
  H         4.6439925540        2.4276495625       16.9923477217
  C         2.9932240723        1.8134233060       18.3636135350
  H        13.8787970803        3.1480809378       20.3764804853
  H        14.7806130019        1.6536613390       20.5514313952
  C        14.3070831177        2.4861155300       22.3821552176
  S         9.9167620275        9.9548577065       17.6189638531
  N        10.2359927544        9.5534820025       16.0800244780
  C        10.7217133305        7.5192035377       14.7584090288
  H        10.5415808918        5.4486427907       13.8971917151
  C         4.3507067354        1.1260615235       36.0394450689
  N         4.3295510510       -0.2057246080       36.1449702432
  O         4.8275612418       -2.0636353965       34.8967985090
  H         2.2523518618        2.5288451106       18.0986629582
  H         2.8215242430        1.6034677394       19.4112810718
  C         2.7757016926        0.7143917226       17.3359203095
  H        14.7219078412        3.4981828420       22.4252964992
  H        13.3761048149        2.5161304254       22.9813319711
  C        15.3304870465        1.4904522398       22.9761594621
  C        11.1445787542        8.2548322962       13.5947465526
  S         3.6766863641        1.9978740859       37.3837455464
  C         4.2136092373       -0.8831555269       37.4054003812
  H         2.1359168330        1.2129922411       16.5719133472
  H         3.6648791903        0.4604665960       16.7705032187
  C         2.2813044543       -0.5994917830       17.9115368577
  H        15.4027291618        0.6669770496       22.3404940711
  H        14.8680715575        1.1246333838       23.8799295461
  C        16.7464212445        2.0668237087       23.2130757841
  H        11.0926824093        9.2827724114       13.6996018051
  C        11.5535169227        7.8144081277       12.3717868507
  H         3.4078462438       -0.5296409702       38.0183130858
  H         3.9962169992       -1.9605594095       37.2916673935
  C         5.5603819081       -0.8291055299       38.0300234228
  H         1.2363498413       -0.4699716649       18.3811884165
  H         2.8864728945       -0.7670352846       18.8136364117
  C         2.2389669468       -1.8261419006       16.9908928222
  H        16.6670316760        2.9359266036       23.8334288645
  H        17.4884030349        1.3342450470       23.7165118637
  C        17.4586755184        2.3052123701       21.8302567587
  S        11.9874405722        6.2735874727       11.8493851669
  C        11.6467370761        8.8715807800       11.3613004631
  H         5.6370541014       -1.6241224843       38.7984850120
  H         6.3631707721       -1.1112000696       37.3613108689
  H         5.6822580932        0.1779993427       38.4287729145
  H         2.9746872382       -2.5228830635       17.3782504620
  H         2.4201365842       -1.6138780183       15.9769739628
  H         1.2508146882       -2.3160851801       16.9568360131
  H        18.3978282293        2.9088182509       21.9914802969
  H        16.8496015985        2.7873988575       21.0514002736
  H        17.7633782299        1.3747039052       21.4225235951
  C        12.4469082991        7.0181931743       10.3205197927
  N        12.2052590963        8.3298601847       10.2332021871
  O        11.2976514537       10.0477081098       11.5326825346
  S        12.9457218973        6.1487646855        8.8550389917
  C        12.3716973872        9.0855298240        9.0383960974
  H        12.7304000453       10.1225670712        9.2657090364
  H        13.2289453819        8.7239623597        8.4850061788
  C        11.1279277956        9.1490813269        8.0986153504
  H        10.2662565916        9.3772082064        8.7520465537
  H        11.2297471379        9.8943379592        7.2816039833
  H        10.8391733585        8.2149392278        7.6414097606
  H        -3.4313813051       15.2529966762       17.1349839425
  C        -3.2590995049       14.1730950638       16.8611335765
  H        -4.1313024323       13.5845184293       16.8464576867
  C        -2.3585696108       13.5750805823       17.8926061514
  C        -2.6884377981       13.9088772679       15.4571561334
  C        -2.8325468874       13.5821489648       19.3689682484
  H        -2.1364454823       12.6291829167       17.4902775858
  H        -1.4041224717       14.0291012694       17.8391988456
  H        -3.2149819839       14.5777985590       14.8760287218
  H        -1.5835853684       14.1435766857       15.3558025130
  H        -2.9290558541       12.8922231928       15.0649733180
  C        -1.6341403915       13.5260569947       20.3177186915
  H        -3.4672071503       12.6654473497       19.4950160225
  H        -3.4828746252       14.4460296740       19.4817406719
  C        -2.1594274181       13.4752729844       21.6516109876
  H        -0.9841680295       12.7171019654       20.0586542067
  H        -0.9731273682       14.3993896311       20.2581679312
  C        -1.1493779225       12.9045055107       22.6780332901
  H        -3.0934133133       12.8066060334       21.7242792608
  H        -2.4463459332       14.4342495237       22.0580179216
  C         0.1099779043       13.6187915434       22.9741938084
  H        -1.6021509963       12.6675537456       23.6658365704
  H        -1.0478900307       11.9038175108       22.2853021909
  C         1.2204670235       12.8334979657       23.5695498087
  H         0.6181931072       14.0186434558       22.0752040240
  H        -0.1657452079       14.4141783243       23.6004113700
  C         1.5634651169       11.5131869398       22.7885467580
  C         0.8298984157       12.1113374304       24.7088013320
  C         2.5482251902       13.6608313723       23.6896760461
  C         1.3133105548       10.3987879493       23.5395766518
  C         1.9952765411       11.2465471965       21.4998442560
  C         0.9170611738       10.7420245753       24.7922151781
  C         0.2916534094       12.7600831250       25.7995953976
  H         2.9202823666       14.2040008361       22.8109222600
  H         2.2986762281       14.3216858951       24.5350120577
  C         3.7467247333       12.8460847938       24.2722780421
  S         1.6858565021        8.9552942925       22.6417324646
  C         2.1824500603        9.9311750313       21.3118739546
  H         2.0799443094       12.0737692112       20.7800540266
  C         0.5108831641       10.1663272022       25.9222264391
  H         0.3633505255       13.8304839492       25.6861276661
  C        -0.0986745105       12.1574873275       26.9675000071
  H         3.8776940058       11.8930967914       23.7589919732
  H         3.4354685550       12.4338613934       25.2373631852
  C         5.0353415680       13.6891681898       24.2841667656
  C         2.5438100026        9.3127667512       19.9928376646
  C         0.0622168746       10.7905567665       27.0965509419
  H         0.5862485490        9.0750933600       25.8767942052
  C        -0.5593744213       12.5178295423       28.2077085380
  H         5.7995174771       13.2276631359       24.7905124470
  H         4.9403893377       14.7325669642       24.7650622080
  C         5.7494146096       13.7717821556       22.8711681198
  C         2.5227842453        7.9488406141       19.7251494166
  C         2.9601310071       10.1585758026       18.8200154251
  C        -0.4698751913       10.0352537974       28.3062603876
  C        -0.7410907262       11.4344034593       29.0436045194
  S        -1.0009553951       14.0317835834       28.9174910131
  H         6.5016314551       14.5028904250       22.9587735694
  H         5.1332718246       14.0805757407       22.0128265261
  C         6.6323738814       12.5637208301       22.4717135941
  N         2.3757136656        6.9139478007       20.6895749089
  C         2.6873220630        7.3411942070       18.4828035428
  C         3.1429488618        9.5333430629       17.5804230657
  H         3.2782789963       11.2068061687       18.9263644493
  C         0.6432763342        9.2505632504       29.1701959911
  C        -1.7462465481        9.2080196810       28.1771421014
  C        -1.1610765099       11.8678518153       30.3135611860
  C        -1.3176104303       13.1850455009       30.4422369749
  H         7.1089845656       12.3523775938       23.4337081375
  H         5.9329179629       11.7549007093       22.2548770001
  C         7.5763373893       12.8506180966       21.3489749693
  S         2.2178621324        5.4213616600       20.0006070901
  N         2.3329848521        6.0020527159       18.4908695328
  C         2.9669247257        8.0896382905       17.3409583618
  H         3.5435011544       10.1536739159       16.8446855826
  H         0.8793794926        8.3629184550       28.6197846255
  H         0.1980182381        8.8236644986       30.0347911021
  C         1.8899110022       10.0362171026       29.5724387324
  H        -1.4727924597        8.2673116768       27.7251753041
  H        -2.1088675768        9.0429717226       29.2063511589
  C        -2.8303085833        9.9264897662       27.3029698012
  H        -1.2086588055       11.1005095888       31.1279898421
  C        -1.6126602951       14.0092359294       31.6908660312
  H         8.2258011364       11.9394777497       21.2700573613
  H         8.2383578757       13.6995451436       21.5848046267
  C         6.8572838721       13.1869121478       20.0233563407
  C         3.1537892848        7.4292626679       16.0703264955
  H         2.2149643021       10.7219350681       28.7928801382
  H         1.4823622217       10.7607834328       30.3493366826
  C         2.9187945433        9.2494756241       30.1768426468
  H        -2.5396288902        9.6911119101       26.3166262438
  H        -2.8541217142       11.0713802767       27.3965379310
  C        -4.1852511314        9.3419797132       27.4612494047
  C        -1.6968686388       15.4486108578       31.7545887194
  C        -1.8286402204       13.2765944246       32.9551246464
  H         6.0062015042       12.4981057471       19.8942215761
  H         6.2958377597       14.1462745604       20.0704831781
  C         7.7571069615       13.0696114170       18.8423708511
  H         3.0342285833        6.3196991531       16.1270890368
  C         3.5875741466        7.8461947014       14.8855573733
  H         3.1625963229        8.3774362239       29.6991490748
  H         2.4134496899        8.7695276615       31.0701120631
  C         4.0053134222       10.0936187890       30.6555472416
  H        -4.3053131087        8.3739648546       26.9739174304
  H        -4.4087551422        9.0774615290       28.4710375052
  C        -5.2637031753       10.3038936026       26.8702666631
  N        -1.4947114631       16.3771146039       30.7111124183
  C        -1.9683038736       16.0495921353       33.0022579929
  C        -2.1403668589       13.9317580517       34.1472156562
  H        -1.7486866874       12.2061406027       32.9165447168
  H         7.2008934395       13.1193746225       17.8837598735
  H         8.3713698644       13.9751547456       18.9054655883
  H         8.3281373165       12.0650952443       18.8394284141
  S         4.1507023849        9.4727833590       14.4064960091
  C         3.5907523507        6.8567512747       13.7681684234
  H         3.8610393502       11.1293158503       30.4765337258
  H         3.9971388291       10.1072540807       31.7481990416
  C         5.3527560777        9.5785771625       30.0876672537
  H        -4.8234396800       10.8455621529       26.0604044136
  H        -5.5079526114       11.0374920019       27.6528249465
  C        -6.4923237792        9.4729575498       26.4368105708
  S        -1.6235057863       17.8917187796       31.2986972069
  N        -2.0670118580       17.4307055255       32.8161140656
  C        -2.3636705708       15.3753071346       34.1485878413
  H        -2.3189227160       13.4140019221       35.1002889481
  C         4.3857080805        8.7127350504       12.8308412545
  N         4.1217903238        7.4022667843       12.6708920679
  O         3.1761325925        5.6829803453       13.8104647504
  H         6.1637853519       10.2918191477       30.3395782880
  H         5.4423710582        9.5512763624       29.0339898616
  C         5.7507182666        8.3403518463       30.8334101423
  H        -6.3260954710        9.2764719410       25.3960168601
  H        -6.5782535101        8.5727768183       27.0427999384
  C        -7.8574172830       10.1883589330       26.7540215849
  C        -2.7295889416       16.1269711258       35.2916335281
  S         4.8227501878        9.6233645866       11.4095339437
  C         4.0409768602        6.6893508627       11.4080066061
  H         6.5360433751        8.6629296179       31.5098101121
  H         4.9490526018        8.1102046240       31.5304500733
  C         6.1671470937        7.2182198175       29.9594227297
  H        -7.6444604765       11.2133897080       26.5012807005
  H        -8.0397762008       10.1607264335       27.7841197833
  C        -9.0570698197        9.4812026952       25.9929675306
  H        -2.5164359414       17.1139969059       35.1912189716
  C        -3.1636852562       15.7691000883       36.5522334817
  H         4.9054754967        7.0113232815       10.8031386140
  H         4.0330912025        5.6448255180       11.4661022527
  C         2.8135859776        7.1240272913       10.6321068608
  H         7.0205628865        7.5090937777       29.3514772032
  H         5.3571712787        7.1560824284       29.3102134182
  C         6.3767213250        5.9165576985       30.7273768412
  H        -9.2318506386        8.4665935305       26.3806939820
  H        -9.9993263836        9.9224477175       26.3488960211
  C        -8.9929315297        9.6941509576       24.5201558916
  S        -3.8248784311       14.2085129169       36.9437498753
  C        -3.4155132394       16.8070872367       37.6035349629
  H         3.1696195957        7.1585629528        9.6274133828
  H         1.9103724124        6.4725916218       10.7703569377
  H         2.3834469693        8.1474936406       10.7945467738
  H         7.1385952566        6.0454164244       31.5097947602
  H         6.8335185187        5.1774810758       30.0256304383
  H         5.4003318019        5.5123591311       31.0487144360
  H        -8.6165339289        8.7120227007       24.1072561307
  H        -8.2352563153       10.4454118552       24.2290567896
  H        -9.9999795506        9.9414273201       24.0469216775
  C        -4.0738357442       14.8636077118       38.5250561958
  N        -3.9311244956       16.2153385411       38.6321355582
  O        -3.0797480239       17.9659588488       37.4362192751
  S        -4.6013748951       13.9995521811       39.9461132747
  C        -4.1286931387       16.9076684999       39.7792631974
  H        -4.3206231954       17.9419528982       39.5571906124
  H        -4.9854827194       16.4991050563       40.3001325707
  C        -2.8449124752       16.9943701354       40.6316168881
  H        -2.8677927256       17.9526937607       41.1253512832
  H        -2.8909256324       16.2478367556       41.4307310697
  H        -1.9298327586       16.9666146261       40.1142648811
