352
 i =    70600, time =    70600.000, E =        24.9354114569
  H        12.8170075977        5.3177942525       32.0606055835
  C        11.7519499854        5.5476113110       31.8815357364
  H        11.3435258367        4.5462085082       31.6809535637
  C        11.7336389153        6.4381685044       30.6662560372
  C        10.9418026625        6.1844372194       32.9121967924
  C        12.2061270065        5.7740115570       29.3685776653
  H        10.7545699134        6.7893770286       30.3987156980
  H        12.3533406705        7.3137329791       30.8831560579
  H        11.5195914200        6.9984207193       33.3666811612
  H         9.8799417617        6.2654038044       32.6588813475
  H        10.8340761910        5.4756450921       33.7594812407
  C        11.2564555462        4.9611646045       28.5249102652
  H        12.9953798716        5.1044209836       29.5495767331
  H        12.7058015784        6.5904322037       28.8131989871
  C        10.3420608602        5.8809586599       27.7380259592
  H        11.9344282227        4.3170285659       27.9049354395
  H        10.6548658700        4.2190073185       29.0622412710
  C         9.5731840972        5.0716461946       26.6354534644
  H        11.0414579272        6.6385212120       27.2104288571
  H         9.7620799035        6.3995837582       28.4401069909
  C         8.4217522544        5.7605341722       26.0207241556
  H        10.2779227449        4.8776323577       25.8019615855
  H         9.3153171701        4.1369637679       27.0424705130
  C         7.4584638785        4.8847145963       25.1338203836
  H         7.8707424317        6.1747306008       26.8957904816
  H         8.6249862616        6.6483193842       25.4849104740
  C         7.1730003729        3.5868905492       25.8217158748
  C         8.0465619188        4.1357517933       23.9593678252
  C         6.2091087486        5.6107573658       24.5874189417
  C         7.5227280616        2.4412636544       25.0755610453
  C         6.5950630968        3.1977178155       27.0663743212
  C         8.0381336382        2.8165413892       23.8460752533
  C         8.4901833322        4.9014171875       22.8423903039
  H         5.8779636375        4.9771455480       23.7270954291
  H         6.5161640110        6.5281171305       24.0601557854
  C         5.0928806859        5.8756880544       25.6364477994
  S         7.3309196235        1.0124451704       25.9426760358
  C         6.6187905791        1.8327156949       27.2628693939
  H         6.1587563848        3.9554127184       27.7425289632
  C         8.4449639907        2.3028012017       22.6595145394
  H         8.5019237729        5.9650881762       23.0315404364
  C         8.8332153207        4.3410758455       21.5914683897
  H         4.8596047608        5.0565223442       26.3322499193
  H         5.5568818086        6.7378179299       26.2111220856
  C         3.7089078818        6.2504715486       25.0932207992
  C         6.2139658574        1.1923324440       28.5365881661
  C         8.8553778679        2.9916592297       21.4827460666
  H         8.5021190120        1.2440926885       22.6988177011
  C         9.2572660155        4.6984067808       20.3622898573
  H         3.2288618154        5.4754211437       24.4786805437
  H         3.6584152180        7.0350291410       24.3728926448
  C         2.7467117787        6.5467742093       26.2328263580
  C         6.2099400586       -0.2100004476       28.8162508980
  C         5.7087804978        2.0278252232       29.6311569604
  C         9.1775234751        2.3148933818       20.1979153891
  C         9.3662140771        3.6674204194       19.4776365261
  S         9.6451782325        6.2329793862       19.5405563914
  H         2.0891767678        7.2514915912       25.7391904707
  H         3.2698575617        6.9806904967       27.1474486216
  C         2.0376228982        5.3182554859       26.7425416041
  N         6.6319496328       -1.2515503000       27.9470624891
  C         5.9642869165       -0.7443111873       30.0755551162
  C         5.3514084624        1.5054196127       30.8911239461
  H         5.4611686013        3.0648531936       29.4166920514
  C         8.0179035021        1.6433541019       19.3928995482
  C        10.5837979095        1.5195500887       20.2130828665
  C         9.8220413625        4.0155092247       18.2358153487
  C        10.0613919671        5.3780524628       18.1169786129
  H         0.9744566847        5.4486659963       26.3075039098
  H         2.4478817414        4.3717448558       26.2743633671
  C         1.9919648087        5.2044302202       28.2652795716
  S         6.6507155373       -2.7389322910       28.7001046016
  N         6.1488535994       -2.1218350895       30.1303190077
  C         5.6238533486        0.0450942203       31.1917430385
  H         4.9778136036        2.1763025777       31.7132984552
  H         7.5748300850        0.8438718723       19.9713698028
  H         8.4009487163        1.3917141454       18.4102914900
  C         6.8349955464        2.5483455443       19.0473039307
  H        10.8854824586        1.3103574796       19.1887615282
  H        10.4233946522        0.6671612622       20.7863635065
  C        11.7906868838        2.2698032740       20.8079504144
  H         9.9734999533        3.2918960115       17.4999528634
  C        10.4653920265        6.0945802091       16.8260730856
  H         1.3825914947        4.3122753573       28.5954933082
  H         1.5958237730        6.0723706239       28.8290069537
  C         3.2732141203        4.8357440496       28.8882479734
  C         5.4125070006       -0.5804505535       32.4504481337
  H         7.0655569844        3.2170471918       18.1468003725
  H         6.6865420680        3.2183462807       19.8575328685
  C         5.4848039619        1.8371933996       18.7406615315
  H        11.5745763193        2.7422649182       21.7139699983
  H        12.1161095973        3.0400473064       20.1845186618
  C        13.0753779239        1.4382179748       21.1213770456
  C        10.4484663899        7.4956898436       16.6390027104
  C        10.7603797275        5.3776391963       15.5810732410
  H         3.5521786058        3.8340745522       28.7304735917
  H         4.0863126380        5.5207295315       28.5509981664
  C         3.1488690413        4.8756962450       30.3715892748
  H         5.4341634977       -1.6905756242       32.3972658206
  C         5.0296680713       -0.1692251524       33.6933064038
  H         4.8571849055        2.6722873671       18.5977267000
  H         5.2423053261        1.2239916457       19.6144770507
  C         5.5977112650        1.1548355494       17.3611277337
  H        12.7998239071        0.6751681197       21.8329028953
  H        13.3975903146        0.9151144816       20.2568579773
  C        14.1282653668        2.3469633236       21.7229412858
  N        10.1756737524        8.4074673377       17.6741797587
  C        10.6573367330        8.1220061061       15.4252183586
  C        11.0445368280        5.9766221715       14.3619668390
  H        10.9376488984        4.2790987735       15.6185931246
  H         2.6820618798        4.0325802608       30.6746009811
  H         4.2128399949        4.8397917151       30.5751860414
  H         2.5765216902        5.7292728206       30.6952069246
  S         4.7688959374        1.3955044432       34.2612296339
  C         4.8676019158       -1.2519084399       34.7480965355
  H         6.2609663097        1.7170869678       16.7404942228
  H         6.0486519407        0.1379965348       17.4679915360
  C         4.2177045774        0.8879385083       16.7219801385
  H        13.6887694302        3.0506752781       22.4423480484
  H        14.6335236293        2.8576160762       20.9003567329
  C        15.1984446739        1.5821187204       22.5320463883
  S        10.3528680564        9.9307866709       17.0897833529
  N        10.6444024523        9.5040586390       15.5077955047
  C        10.9975576343        7.4447022247       14.2189690939
  H        11.3443211401        5.3579203929       13.5888745976
  C         4.4747836542        0.6626529456       35.8891672282
  N         4.5084309287       -0.6768203700       35.8969091432
  O         4.9099235430       -2.4849255456       34.5415783678
  H         4.3452307561        0.5592221868       15.6754373366
  H         3.8932937466        1.9181468994       16.6855819840
  C         3.1372816599        0.2455023296       17.6635681308
  H        14.7522357357        0.8090790781       23.1485496458
  H        15.6828915220        1.0468440267       21.7325414051
  C        16.1085938316        2.4789678396       23.3319127076
  C        11.2981812979        8.1861792399       13.0118795073
  S         4.1451802641        1.5352628705       37.3325605051
  C         4.5274482537       -1.4267012722       37.1543957258
  H         3.1995271764        0.7685710823       18.6245857213
  H         2.1580175380        0.5524273545       17.2126322689
  C         3.1653833975       -1.2294276697       18.0510027010
  H        15.6409733632        2.9299231950       24.2370682531
  H        16.2840990764        3.3837693042       22.8211162704
  C        17.5035876053        1.8293818655       23.5110191440
  H        11.2409486076        9.2221654963       13.1151676643
  C        11.7951813817        7.9163921518       11.7921073933
  H         3.8100564441       -0.9551583859       37.8405666996
  H         4.0615854047       -2.3933633652       36.9876268308
  C         6.0107125190       -1.5040127015       37.6704200233
  H         2.5752894923       -1.4090915245       18.9632797406
  H         4.1279217653       -1.6688638362       18.2950443585
  C         2.4898534976       -2.0439689112       16.9034748933
  H        17.9783680963        1.9824434916       24.4987717900
  H        17.2524366567        0.7507253526       23.5997861132
  C        18.6404085891        2.0427730833       22.4564056935
  S        12.3179033516        6.3625734650       11.2591518077
  C        11.9656877906        9.0157344754       10.8152389800
  H         6.6849076705       -1.2872539964       36.8492132087
  H         6.1603280746       -0.8427807444       38.5203402258
  H         6.3413445665       -2.4694546583       38.0720674134
  H         1.4398472596       -2.1144505646       17.0784900281
  H         2.8461927105       -3.0578378530       17.0640903181
  H         2.7094835745       -1.8056956945       15.8259709263
  H        19.0996191943        3.0601976101       22.4036185812
  H        18.2853323709        1.7510370892       21.4545223289
  H        19.4624382746        1.3923374861       22.6913934796
  C        12.8561713819        7.1753309706        9.7551965778
  N        12.5487371948        8.5087583532        9.7305000003
  O        11.5010722526       10.0876370781       10.9105704330
  S        13.6482822097        6.5296274507        8.3936563735
  C        12.7699177737        9.4747676108        8.6426588505
  H        12.9578234551       10.4490886294        9.0081644661
  H        13.6231883512        9.1336878184        8.0442099910
  C        11.6749469151        9.4970158347        7.6396625931
  H        11.9014598464        8.8593227144        6.6616387386
  H        10.7176664394        9.2121091672        8.0767453020
  H        11.5726541275       10.4164498066        7.1902465858
  H        -3.4167997536       14.6091071411       16.6184231461
  C        -2.8045440236       13.6954166035       16.7478037034
  H        -3.5674746583       12.8846084056       16.8906196141
  C        -1.8512251543       13.6827936062       17.9044137248
  C        -1.9794713609       13.5352556077       15.4755041119
  C        -2.6136935982       13.2979783014       19.1206576481
  H        -1.0693306074       12.9499539153       17.8650116412
  H        -1.3820648155       14.6037133661       18.0055402053
  H        -1.8772419067       12.4926404795       15.0707625925
  H        -2.4293081830       14.1004658704       14.7118409111
  H        -0.9902498207       13.9915516061       15.7620922974
  C        -1.5889967104       13.3804506110       20.1519499776
  H        -2.9839349976       12.2851353369       19.0286350677
  H        -3.5220124947       13.9122132150       19.3021608517
  C        -2.1550470522       13.2271726402       21.5868385856
  H        -0.8058106768       12.6498983798       19.8679959623
  H        -1.0430798322       14.3270296643       20.1115013318
  C        -1.1284932490       12.6762731011       22.5624559003
  H        -3.0340844851       12.5437624842       21.5758503304
  H        -2.4708129277       14.2318683936       21.8221287237
  C         0.0694100085       13.5215216702       22.7095214609
  H        -1.4832446977       12.6410623017       23.5362503176
  H        -0.7554524086       11.7272763328       22.1883983580
  C         1.1951705458       12.8136053069       23.5343828831
  H         0.5065480915       13.7469167709       21.7094520160
  H        -0.1303149185       14.4630807414       23.1914963919
  C         1.6476172015       11.5037644830       22.7899875777
  C         0.8087251774       11.9864535552       24.7301790748
  C         2.3924871156       13.6857008023       23.7569668311
  C         1.4778243643       10.3483927350       23.5709315107
  C         2.0665435540       11.2272623325       21.5203097506
  C         0.9589515559       10.6549729717       24.7993063982
  C         0.3592804816       12.6487258331       25.8546680981
  H         2.5522053032       14.2760052646       22.7775184002
  H         2.2107353367       14.3755036003       24.5907125644
  C         3.7189060250       12.9717373351       24.1830364712
  S         1.8620512342        8.9407041713       22.7629602621
  C         2.2641440423        9.8702795145       21.3811914568
  H         2.2306271459       12.0893322197       20.9148617547
  C         0.6056633464       10.0489739252       25.9399005459
  H         0.1896138117       13.7155478926       25.9113186317
  C         0.1192405212       12.0308721939       27.0233946368
  H         4.0358629698       12.1819977840       23.5528750955
  H         3.4909551151       12.6477908106       25.2189737251
  C         4.9566141515       13.8737057340       24.3614706677
  C         2.5890637620        9.2614388304       20.0243007699
  C         0.1928291299       10.7002055753       27.1401495846
  H         0.6051735888        8.9845509939       25.9220714260
  C        -0.3003817279       12.3614550011       28.2853641500
  H         5.5970730504       13.3695008379       25.0798269606
  H         4.7103898017       14.8112399469       24.8055362766
  C         5.6236563994       14.2656790058       23.0095961688
  C         2.5336659847        7.8800906843       19.7292891587
  C         3.0005725515       10.1331914023       18.8844996186
  C        -0.1889014930        9.9590547045       28.4072632648
  C        -0.4756002752       11.2960725867       29.0742466500
  S        -0.5863437475       13.8898206198       29.0372569030
  H         6.5201141732       14.8521005636       23.2404374090
  H         4.9330133884       14.8994116643       22.4457725392
  C         6.0281972351       13.0438875805       22.0741959708
  N         2.2370552866        6.7853259813       20.6046310925
  C         2.9011632177        7.3214226506       18.4876231872
  C         3.3376217739        9.5601697041       17.6341637864
  H         3.2368385912       11.1376352199       19.0305965761
  C         1.0220603152        9.1598638528       28.9526709446
  C        -1.4654721052        9.0772422805       28.3533147748
  C        -0.9547089939       11.6704432596       30.3538863653
  C        -0.9935588199       13.0309081050       30.4692278879
  H         6.1353601711       12.0651072335       22.5153966483
  H         5.2116314161       12.7748344802       21.4935548830
  C         7.2685131177       13.2955668251       21.2332029413
  S         2.2773342688        5.3755558122       19.8039647043
  N         2.7834139713        5.8954256712       18.3904912491
  C         3.3334069445        8.1015972281       17.4350088891
  H         3.6034276050       10.2037301806       16.8258869619
  H         1.1534364407        8.2446780724       28.4187028073
  H         0.7067585255        8.7329159254       29.9453028060
  C         2.2918434995        9.9289842157       29.2251969364
  H        -1.3731508720        8.1412937082       27.8751362409
  H        -1.7568622430        8.7685877369       29.3942289150
  C        -2.6949757943        9.8453643159       27.6988145867
  H        -1.0942339438       10.8318355074       31.0474728410
  C        -1.2582249126       13.7776335808       31.7208602368
  H         7.9828660752       12.5714444886       21.4477660996
  H         7.7005583403       14.1851391563       21.4850678719
  C         6.8205239030       13.1821076352       19.7107702015
  C         3.4808721881        7.4928856581       16.1581377545
  H         2.5768444865       10.3481315467       28.2620063408
  H         1.9689956541       10.7293165008       29.8489903806
  C         3.3834937918        9.0058860105       29.7430787574
  H        -2.3652161389       10.2838270567       26.7536718641
  H        -2.8194655087       10.6668592893       28.3886941989
  C        -4.0125836566        9.0628784343       27.6489816081
  C        -1.3650864714       15.1959239789       31.8360959684
  C        -1.5688926672       12.9675173296       32.9287253215
  H         6.3018598346       12.3310627217       19.4374171039
  H         6.1038989992       14.0302744683       19.6037346782
  C         8.0611216122       13.4465730653       18.7403229114
  H         3.2700117779        6.3889910749       16.1849128279
  C         3.8964288645        7.8470586442       14.9166693815
  H         3.7982461231        8.4212515403       28.9893873559
  H         3.0129168451        8.2805157065       30.4579067088
  C         4.5868958440        9.7207689145       30.3289247190
  H        -3.8672880002        8.1658221463       27.0523041815
  H        -4.3403517433        8.7841452016       28.6283892934
  C        -5.0528794777       10.0051274243       27.1149105087
  N        -1.1629963111       16.1463224072       30.8046809973
  C        -1.7491855883       15.8089375875       33.0239112096
  C        -1.8243659352       13.6422873243       34.1655409399
  H        -1.4313689549       11.9249150850       32.8770157612
  H         8.5816245980       14.3542757716       18.9516145964
  H         8.6807558465       12.5088848339       18.9232389235
  H         7.6347458534       13.5383685495       17.7237948775
  S         4.3623049488        9.3903443315       14.4402697336
  C         4.0142714461        6.8370961999       13.8426337018
  H         4.9236871442       10.5071313986       29.6646358054
  H         4.1855251720       10.2080260506       31.1741675898
  C         5.8915481665        8.8582457647       30.4150434527
  H        -4.5575876137       10.9326347505       26.6649976271
  H        -5.5481922376       10.4057878511       27.9677210835
  C        -6.1542660582        9.3408115536       26.2453160770
  S        -1.3726425327       17.6491820425       31.3645201177
  N        -1.6871228140       17.2498451062       32.9128315193
  C        -1.9259997091       15.1182269733       34.2417874849
  H        -1.9101437491       13.0841414431       35.0821362296
  C         4.4494621779        8.7550975170       12.7368144852
  N         4.2856222325        7.4476496292       12.6588118623
  O         3.7590031544        5.6734424215       14.0065750760
  H         6.7227115620        9.4770320887       30.6831333425
  H         6.2181147955        8.4918106879       29.4536152924
  C         5.7934736895        7.6680938730       31.3579751635
  H        -5.6021710188        8.7992125398       25.5343841882
  H        -6.6894568946        8.5950140576       26.9066840948
  C        -6.9693060636       10.3544790581       25.6482288935
  C        -2.3062429402       15.8266016212       35.4211492047
  S         4.8683595280        9.7518351889       11.3472814925
  C         4.4317298352        6.5918971855       11.4522182383
  H         5.6312992838        8.1132758513       32.3046968842
  H         4.8400855751        7.1921618612       31.2397608456
  C         6.9694889141        6.7130799407       31.5646812020
  H        -6.4886761242       10.7167369917       24.8090082282
  H        -7.1509390515       11.2086642386       26.2900764728
  C        -8.3261440645        9.7836470727       25.2310050746
  H        -2.0601215517       16.8487460291       35.3682649870
  C        -2.7924396433       15.4055641284       36.6379464354
  H         5.1153933487        7.0563004472       10.7845846917
  H         4.9240951712        5.6176930802       11.6402958938
  C         3.0274269233        6.4927335413       10.8346300541
  H         6.5555838085        5.8548511683       32.1475838068
  H         7.6761459111        7.2673075224       32.1764964372
  C         7.6511162423        6.1454042340       30.2975442411
  H        -8.8034468175       10.5171692707       24.6149702863
  H        -8.1285127482        8.8282987880       24.7858208661
  C        -9.2213837452        9.5840551083       26.4579644626
  S        -3.1708982936       13.8136121179       37.1487382104
  C        -3.0375608802       16.4406181498       37.6310916372
  H         3.0949091413        5.7410973983        9.9764000001
  H         2.2254533002        6.2699842205       11.5787937841
  H         2.7228640818        7.4734240851       10.4690269788
  H         8.5482862030        5.5946218945       30.5853877129
  H         7.9580768584        6.9598968951       29.6218617969
  H         6.9692847905        5.5742878420       29.7007072671
  H        -9.1864213804        8.6873586578       27.0801517993
  H       -10.3029309786        9.7886448349       26.1646138885
  H        -9.0981885009       10.4484101266       27.1019869807
  C        -3.8148770052       14.5354345977       38.6230691427
  N        -3.6297394475       15.8893569061       38.7375668949
  O        -2.7655196011       17.6358584317       37.4603286358
  S        -4.3692630537       13.4433627133       39.9843299205
  C        -3.7290574168       16.6434313364       39.9671736163
  H        -3.8968584565       17.7181895992       39.7685250281
  H        -4.6299627493       16.4492820708       40.4725224062
  C        -2.4800259740       16.5798005679       40.8117051413
  H        -1.6188544984       16.9536657687       40.3031428616
  H        -2.5321485981       17.1525656387       41.7533237583
  H        -2.2380241601       15.5384434497       41.0777579900
