352
 i =    72800, time =    72800.000, E =        24.8863951416
  H        12.2353019967        7.2109159240       32.4765738185
  C        11.6798650477        6.2453966158       32.2529124182
  H        12.2954707809        5.4299450139       31.8674900949
  C        10.5366697551        6.5871701230       31.2373600576
  C        11.1200841551        5.6833515646       33.5861801913
  C        11.0587942430        6.5796794202       29.8362795627
  H         9.7071485911        5.9503349056       31.2398406040
  H        10.2833272479        7.6215596750       31.4476495399
  H        10.3276877955        6.1997549389       34.1724871248
  H        10.7089819546        4.6918981708       33.4761392772
  H        11.9472151136        5.3389382612       34.2225419694
  C        10.1822566207        5.7590355356       28.8303176358
  H        12.1147471930        6.2127317739       29.8782677577
  H        11.0265488818        7.5954743177       29.3634129620
  C        10.6332714554        5.8750732933       27.4149989388
  H        10.0220300950        4.7735097049       29.1426854651
  H         9.1644772689        6.1707689716       28.9661001086
  C         9.6666119078        5.3028934438       26.4478599576
  H        11.5747065105        5.3378259607       27.2365010934
  H        11.0467263341        6.7719324400       27.0608112944
  C         8.4175451160        6.0688140534       26.2187526185
  H        10.1651212713        5.0839139917       25.5056615536
  H         9.2842052238        4.2901402402       26.7752636962
  C         7.2050198773        5.3158267615       25.5103660678
  H         8.1360269311        6.5343926819       27.1436145443
  H         8.6442716046        6.8978959206       25.5914770986
  C         6.8108069390        4.0458918157       26.2362594379
  C         7.7657334752        4.6143977684       24.3518788749
  C         5.9410234172        6.1118853525       25.1366471929
  C         7.0796116073        2.9247620355       25.4610510747
  C         6.3454572072        3.7087622812       27.4680819699
  C         7.6540436717        3.2553845444       24.2464743597
  C         8.2712577630        5.3600325810       23.2275392627
  H         5.4406344310        5.6785480708       24.2741973304
  H         6.1817898560        7.1311818591       24.8767756647
  C         4.8898264116        6.1870212206       26.2550251370
  S         6.6887302641        1.4748473111       26.1883534439
  C         6.2082890778        2.3533950342       27.6069862276
  H         6.1747289625        4.4351793826       28.1689690196
  C         8.1769383965        2.6330608895       23.1178235533
  H         8.2445794515        6.4140526382       23.1797849973
  C         8.5196792184        4.7251581578       22.0533621598
  H         4.6203696904        5.1543436509       26.5384870919
  H         5.3662547475        6.8224435913       27.0250362673
  C         3.5573144710        6.8366388752       25.7357232368
  C         5.7410188386        1.6996341861       28.8742008769
  C         8.6148723455        3.3560820308       21.9713022070
  H         8.0969317534        1.5650552014       23.0962426937
  C         8.9564562671        5.0842986954       20.7643697907
  H         3.2464801767        6.2842936488       24.8643298560
  H         3.8741839706        7.8172480940       25.2720993635
  C         2.4084333945        7.0428349377       26.7446768259
  C         5.8171749641        0.3242650685       29.1668194897
  C         5.2442320803        2.5452416145       29.9847975052
  C         8.9789181416        2.6156321052       20.6228514373
  C         9.1715944317        3.9935436120       19.9824032120
  S         9.3426258243        6.5416745405       19.9553201491
  H         1.7548179552        7.7379410572       26.2691576092
  H         2.7914909179        7.5502657194       27.6285684067
  C         1.6681551480        5.8174396268       27.2323655887
  N         6.2227098214       -0.6202587974       28.1943871241
  C         5.5076169425       -0.2190959782       30.4114522706
  C         5.0146829443        2.0164753018       31.2631619579
  H         5.0438870066        3.6431959703       29.9180359460
  C         7.8587479151        1.8058817409       20.0799383547
  C        10.2629584412        1.9318054858       20.9260911125
  C         9.4963231868        4.3313036231       18.6374186996
  C         9.6312568089        5.6865830406       18.5297908404
  H         0.9682613823        5.5845634447       26.4197772986
  H         2.3817942307        4.9919961995       27.2094722112
  C         1.0965469057        5.8314320406       28.5649981423
  S         6.2330634499       -2.1075595809       28.9719229615
  N         5.6950492323       -1.6279472327       30.4125147659
  C         5.1454176928        0.5797466631       31.5141181717
  H         4.4671145224        2.6966621821       31.9684280520
  H         7.8408544860        0.9518000363       20.8322226848
  H         8.1079006773        1.2400238452       19.1726867721
  C         6.4759572777        2.5421773126       19.8493949655
  H        10.5585189088        1.3597657739       20.0303954262
  H        10.2088606357        1.2290826155       21.7761480274
  C        11.4567102105        2.8559201833       21.1876224236
  H         9.6406362504        3.5946489990       17.9053806665
  C         9.8883485399        6.3993964527       17.2679813425
  H         0.4171309392        4.9483186645       28.5533814005
  H         0.4603169927        6.6806005389       28.7444404763
  C         2.0326301334        5.9109003018       29.7587631695
  C         4.9357641772       -0.0719699476       32.7755216586
  H         6.6382188760        3.2596711564       19.0070946094
  H         6.2541002527        3.1067705893       20.7122033023
  C         5.1737672006        1.7566035421       19.5706570230
  H        11.3218770614        3.4944984353       22.1270447907
  H        11.6256927938        3.5890957248       20.4285870210
  C        12.7987879094        2.1109951493       21.3645458903
  C        10.0911620259        7.7987419684       17.1090902459
  C        10.1643868981        5.6071009145       16.0594148537
  H         2.7707028750        5.1577397858       29.6603739416
  H         2.6548786344        6.8019232126       29.9069838775
  C         1.1818463715        5.7955207913       30.9773950447
  H         5.3634332236       -1.0266728746       32.8125308007
  C         4.6794231214        0.3295318302       34.0886060760
  H         4.3971423685        2.2993011541       20.1669425339
  H         5.2440154871        0.7822982014       20.0522805753
  C         4.9066522954        1.6023476415       18.0353886056
  H        12.6808490274        1.6361342067       22.3724659206
  H        13.0845583874        1.3740924744       20.6602418822
  C        13.9765715507        3.0759295229       21.2685715331
  N         9.7737796302        8.7953419830       18.0735350313
  C        10.3665211591        8.4007367764       15.8585421846
  C        10.4507616797        6.1976251609       14.7936952248
  H        10.0984637544        4.5224645142       15.9932821469
  H         1.7749316995        5.2965832175       31.7143157505
  H         0.8349962536        6.7434554436       31.4962855882
  H         0.3138666297        5.2777422415       30.9032855256
  S         4.2523305224        1.9954956558       34.5496212052
  C         4.7863924815       -0.6193229017       35.2675999069
  H         4.6506494612        2.5954867947       17.6707676714
  H         5.7644179493        1.2920681386       17.3916403693
  C         3.6787333775        0.7190996282       17.7894869711
  H        13.7505651872        3.9766781705       21.8669358831
  H        14.2179033949        3.3650998842       20.2705763169
  C        15.2501556310        2.3045199624       21.7921679564
  S        10.0948305096       10.2569912407       17.4567991857
  N        10.5239211688        9.7801350168       15.9827140692
  C        10.5268880578        7.6448391824       14.6536885544
  H        10.6976302338        5.5553231269       13.9446494867
  C         4.2647592841        1.3644691284       36.2347791546
  N         4.4601609241       -0.0022388469       36.4388474051
  O         5.0124315484       -1.8125318987       35.0906922114
  H         3.5965451245        0.5062185274       16.7339931582
  H         2.7287277319        1.2367497348       18.0461432672
  C         3.5770148423       -0.6750962090       18.3672489297
  H        15.2922480752        1.1825492146       21.7818163533
  H        16.0302429303        2.5866764693       21.1591569643
  C        15.5699869749        2.7019711777       23.2294392066
  C        10.7618159978        8.4888089576       13.4364915473
  S         3.7935467449        2.2762635447       37.6760995306
  C         4.6208671351       -0.6571319821       37.7049624563
  H         4.4050596507       -1.2599192012       18.0229510876
  H         3.5769682345       -0.6451101782       19.4787373324
  C         2.2636603960       -1.1874520206       17.8652055196
  H        14.7827974789        2.3718007077       23.9228722679
  H        15.4447427777        3.7930106841       23.2734590587
  C        16.9403412494        2.2993372901       23.7514079480
  H        10.5680082319        9.5177056351       13.5209404186
  C        11.3634304486        8.2237438170       12.2406699401
  H         3.8415948859       -0.2209136492       38.4081826155
  H         4.4557737365       -1.7495893340       37.6617325378
  C         6.1038240246       -0.5440870042       38.2271418047
  H         1.4856074467       -0.3991940681       17.6086731403
  H         1.7045413783       -1.5827845110       18.6524965493
  C         2.2274157369       -2.1628322104       16.7049248897
  H        17.1777456176        3.0841297445       24.4135423665
  H        16.8160901634        1.4123768597       24.3048445455
  C        18.0351137717        2.3784615657       22.6970820729
  S        11.8044570307        6.6965148191       11.6790680445
  C        11.5967741965        9.3488925623       11.3147862020
  H         6.7671991059       -1.0646055812       37.5383053517
  H         6.3897808832        0.5053270509       38.4384882729
  H         6.2836308992       -1.0678147125       39.2089692190
  H         2.9358985959       -2.0550156680       15.8808448189
  H         1.2275326284       -2.0990514358       16.1782963297
  H         2.1592898336       -3.2061864846       17.0548999809
  H        17.8278360620        3.2425155124       22.1388625930
  H        18.0082940512        1.6285946780       21.9209966550
  H        19.0238387364        2.1896358595       23.0430214635
  C        12.2336468098        7.4943147520       10.1805195973
  N        12.1691461899        8.8613078560       10.1638571403
  O        11.2723288002       10.5123838308       11.5179756555
  S        12.8306374347        6.7012672980        8.7435899353
  C        12.3592274196        9.7516869117        8.9776594658
  H        12.5348563130       10.7472326694        9.2157688656
  H        13.3634176031        9.3507452143        8.7276665461
  C        11.2090184789        9.5954567335        7.9195113221
  H        11.7395303141        9.4439056512        6.9978903686
  H        10.6487079558        8.6528838968        8.1441961628
  H        10.5442788833       10.3846886477        7.9478312173
  H        -2.0563030442       15.5175833708       15.7067718749
  C        -2.4957732038       14.5790074347       15.9970234038
  H        -3.5421596682       14.8856191267       16.2430313185
  C        -1.9501808732       13.8473883409       17.2037871421
  C        -2.5155594464       13.7085887236       14.7084526660
  C        -2.3728706163       14.4750838392       18.5303227140
  H        -2.3074309437       12.8702861991       17.2379582186
  H        -0.8629823273       13.7454871757       17.1133862697
  H        -2.4079331639       12.6104455654       14.8519444314
  H        -3.5005536102       13.8037555202       14.1384670291
  H        -1.9587225892       14.0507632083       13.8361622602
  C        -1.4742708863       14.1473046024       19.6434990494
  H        -3.4327136307       14.2692428009       18.6614806437
  H        -2.4052848189       15.5810711733       18.4106107448
  C        -2.1031886107       14.1672237643       21.0680784415
  H        -0.9609505164       13.1791794967       19.4651191914
  H        -0.7123643180       14.9112586016       19.7198949708
  C        -1.3350329311       13.4503666104       22.1394999226
  H        -3.0554122810       13.6413932730       20.9340664142
  H        -2.3255316494       15.1915449881       21.3891680046
  C        -0.0958531925       14.2626958250       22.5212763204
  H        -1.8930888711       13.1221268575       23.0030280247
  H        -0.9808285671       12.5193970219       21.7319202886
  C         1.1182758422       13.6934160665       23.2657419140
  H         0.3745179273       14.7941260460       21.7125268084
  H        -0.4414056167       15.0207308171       23.2646085369
  C         1.5990511095       12.3424413490       22.6458205554
  C         0.7783964143       12.9709802603       24.5519035548
  C         2.3511364634       14.5952050264       23.3067173283
  C         1.3650341013       11.2242845243       23.4778873816
  C         2.0126113897       11.9378153866       21.3753379818
  C         0.8987536513       11.6786332168       24.6733158960
  C         0.2329528321       13.5887555229       25.6898019716
  H         2.4725110061       15.0669818042       22.3025316811
  H         2.1987423744       15.3725380473       24.0562850314
  C         3.6486341069       13.8361764511       23.7484796819
  S         1.6937449163        9.7335357625       22.7574643742
  C         2.1185740442       10.5657615935       21.3027670892
  H         2.1630825015       12.6708480011       20.5957832531
  C         0.5179809043       11.0575732707       25.7982345018
  H         0.1467118029       14.6272864944       25.7319802401
  C        -0.1791806587       12.9475291266       26.8371853347
  H         3.9984570925       12.9624153241       23.1947509930
  H         3.3795352258       13.5826710555       24.7651165104
  C         4.8828267558       14.7092020475       23.9018972217
  C         2.6547675820        9.8435642778       20.1001146846
  C        -0.0178021879       11.6259056214       26.9424500438
  H         0.7011237470        9.9801128688       25.8874960937
  C        -0.6471682816       13.2855071006       28.0627331031
  H         5.5641365289       14.3680851232       24.6501670156
  H         4.5185710935       15.6984021185       24.1039871615
  C         5.6507674519       14.7214884491       22.5632808606
  C         2.5704595118        8.4151291776       19.8679396060
  C         3.1743525609       10.6347389893       18.9372214076
  C        -0.5244821483       10.8740608467       28.1031819316
  C        -0.8709539309       12.1676190144       28.8304386472
  S        -1.0649668296       14.7848726177       28.8198422372
  H         6.2616746337       15.5456638900       22.5721803941
  H         4.8513797453       14.7423814445       21.7540737084
  C         6.5635315889       13.4632433247       22.4881582642
  N         2.1077740512        7.5132474897       20.7968230065
  C         2.9261814022        7.8540501179       18.6910068668
  C         3.6108676201       10.0005067265       17.7533515844
  H         3.3213932937       11.7512220373       18.9931079528
  C         0.6113606761       10.0902867908       28.8695139009
  C        -1.8209302406       10.0951119210       27.8532545105
  C        -1.3021190162       12.5432547593       30.1144576861
  C        -1.3869388591       13.9657133584       30.2838076790
  H         7.2225640256       13.4909099329       23.2730268116
  H         5.9911983301       12.5359121582       22.4708929516
  C         7.5344132620       13.4246094158       21.2341718548
  S         2.0279734779        6.0479695954       20.0968011934
  N         2.5938063919        6.5229711489       18.6272505581
  C         3.4290299970        8.5390216810       17.5435795738
  H         4.0025696046       10.5609120336       16.9636039735
  H         0.9036869619        9.2552198953       28.2405905570
  H         0.1659949453        9.7118929156       29.7850999140
  C         1.8890210713       10.8463274003       29.2374544382
  H        -1.5191645316        9.3009045278       27.1518180726
  H        -2.0434868269        9.5772765895       28.7909064512
  C        -3.0145911816       10.9814508709       27.5491970149
  H        -1.5653707945       11.7852314508       30.8582342586
  C        -1.7519481884       14.6668784299       31.6141382096
  H         7.9399001871       12.4151260215       21.0950050901
  H         8.3529972423       14.1780570962       21.4173051965
  C         6.8929757975       13.8311784830       19.9329554757
  C         3.5709514064        7.7964592434       16.3125764391
  H         2.3562097514       11.3044753726       28.4079756496
  H         1.5553812346       11.6923896514       29.8861731722
  C         2.9603676709        9.9118515794       29.7427757028
  H        -2.7635545306       11.3840586875       26.5364449185
  H        -3.1643730342       11.7509280308       28.3196732027
  C        -4.2949544429       10.3190623581       27.3873041510
  C        -1.7261546492       16.0747527787       31.7950141905
  C        -1.9792755920       13.8573385808       32.8467463382
  H         6.1553732046       13.0150151679       19.6842058321
  H         6.2971450667       14.7301242930       19.9540276949
  C         7.8876166894       13.9106113859       18.7199167518
  H         3.3247125502        6.7354865826       16.2920380504
  C         3.7019176932        8.2245144855       15.0300365430
  H         3.3750521331        9.2285785442       28.9823985638
  H         2.4977082688        9.3904785644       30.5818491026
  C         4.0416666985       10.7722674662       30.3852653553
  H        -4.3559282899        9.6209856206       26.5794928197
  H        -4.4494190051        9.5746517627       28.1434450637
  C        -5.4812141042       11.2372604060       27.0037899418
  N        -1.4421520991       17.0545905594       30.8372479990
  C        -1.9093609236       16.6252285976       33.0519322388
  C        -2.1501171390       14.4953639063       34.0609639822
  H        -2.0552003666       12.7867088312       32.8663443209
  H         7.3312295188       14.2624182056       17.7937831395
  H         8.6232067971       14.5840668560       18.9999151805
  H         8.3159772152       12.9694244453       18.5103998865
  S         3.8785176014        9.8321462621       14.4805545661
  C         3.8612129242        7.2204706035       13.9477432591
  H         4.0660176065       11.7296622338       29.8013476481
  H         3.6254990874       10.9082503164       31.4025474080
  C         5.4008341684       10.1122577344       30.5353249498
  H        -5.1642281496       12.0015499982       26.2746903327
  H        -5.6844708971       11.7954856612       27.8501412739
  C        -6.6567429627       10.4715339192       26.3684659262
  S        -1.3876116848       18.4876831695       31.5286481326
  N        -1.7882168641       17.9917270387       33.0667931984
  C        -2.2320099574       15.9359887133       34.1868338480
  H        -2.2528789476       13.9202469056       34.9302882621
  C         4.2161636597        9.1518823044       12.8941526225
  N         4.1950105905        7.8159033474       12.7905397152
  O         3.6320620567        6.0097817516       14.1187655091
  H         6.0731922605       10.7792124069       31.0504659797
  H         5.8851723086        9.9816051849       29.5181986579
  C         5.3719351513        8.7507817480       31.2623795237
  H        -6.3137135657        9.5019395720       26.0518279279
  H        -7.4954958657       10.2845383918       27.0314364854
  C        -7.2111094953       11.1374696551       25.1508758589
  C        -2.5133305940       16.6542699199       35.3787738538
  S         4.6344300333       10.0072788031       11.4396712909
  C         4.2385476120        7.1752678883       11.4664989343
  H         5.8156532892        8.9070493720       32.2470975559
  H         4.3908925935        8.3260235256       31.4121211699
  C         6.2849781818        7.5857303753       30.6156800023
  H        -6.4745959255       11.1312697782       24.4015897498
  H        -7.6001608827       12.1271640889       25.3143514374
  C        -8.4757891287       10.4667336378       24.6462850434
  H        -2.0467831728       17.6480810414       35.3813753109
  C        -3.0671879090       16.2945490394       36.5509835158
  H         4.8073029695        7.5681433830       10.6243987514
  H         4.6596400193        6.1785841521       11.5174648859
  C         2.8495620386        7.0757176173       10.9173152555
  H         7.2002520597        7.9057901084       30.0982497387
  H         5.5398156669        7.1438048960       29.8703223248
  C         6.6638015646        6.4599717530       31.5527143007
  H        -8.6853066923       10.8615705697       23.6272243360
  H        -8.2956322777        9.4048635712       24.5677262219
  C        -9.7119467772       10.4391505311       25.5348938633
  S        -3.6848426363       14.7923054890       36.8820862254
  C        -2.9746261368       17.2637389535       37.6186558798
  H         2.1830884358        6.6381101671       11.6140870921
  H         2.5354753721        8.0587444512       10.5383609309
  H         2.8677880850        6.4713198486        9.9846849555
  H         6.4043867262        5.5260454996       31.0836206234
  H         6.0687953853        6.4882325143       32.4580929637
  H         7.7186188739        6.3476759289       31.7984958585
  H        -9.5666818679        9.9960402074       26.5419759117
  H       -10.4024829695        9.8339038708       25.0091138991
  H       -10.0851457899       11.4623718727       25.5903819074
  C        -3.6929493983       15.3836739471       38.5492596273
  N        -3.5007038396       16.7163992029       38.7161919602
  O        -2.5547574771       18.3943453179       37.5970882288
  S        -4.4369616969       14.5443291427       39.8843614351
  C        -3.6587410040       17.4679069171       39.9349728673
  H        -4.0067683624       18.3940012922       39.6602155780
  H        -4.4873719282       17.0748260914       40.5531255399
  C        -2.3687632601       17.6921060224       40.6940383802
  H        -1.7702923401       18.4724518684       40.1948373982
  H        -2.5671857037       17.9591377153       41.7489463518
  H        -1.7600024934       16.8576875010       40.6874001104
