352
 i =     5500, time =     5500.000, E =        30.3256577202
  H        12.2384874030        5.1225880653       31.8770065518
  C        11.3238276957        5.5942752925       31.7834006439
  H        10.5526797757        4.8683670478       31.5452141880
  C        11.4095730862        6.7585612529       30.8578301418
  C        11.0201587071        6.0726895702       33.2089554672
  C        11.6726362931        6.2807774089       29.3090455315
  H        10.5063980195        7.2861124863       31.0313867177
  H        12.1817713871        7.4468239650       31.2158100060
  H        11.6914011622        6.8915526643       33.5059803413
  H        10.0416699572        6.5472902746       33.1617821781
  H        10.9438366723        5.3693277754       33.9909564925
  C        10.4860782180        5.7582613302       28.5070060473
  H        12.3020112306        5.3999256932       29.4015455187
  H        12.4480405764        6.8764060668       28.7710398741
  C        10.6215475535        5.8943261216       26.9792191556
  H        10.3211211160        4.7629610541       28.7248957865
  H         9.5412948648        6.2512035409       28.8090448006
  C         9.5144029264        5.1241760731       26.2626035302
  H        11.5621838040        5.3650457979       26.7924427482
  H        10.5625376729        6.9400191922       26.7349174479
  C         8.2785459171        6.0818764798       25.9469166258
  H         9.9304401301        4.5514173267       25.4167066523
  H         9.2252830081        4.2241880702       26.8695089732
  C         7.1738529764        5.3705889257       25.2046346480
  H         7.8050642776        6.5386901940       26.8525721406
  H         8.7654104605        6.7996582230       25.2721677872
  C         6.7693207993        4.0840977222       25.9345099622
  C         7.7391771102        4.5358459496       24.1166572640
  C         5.9737128494        6.2097853831       24.9712153118
  C         7.1937745667        2.9107260112       25.2793479626
  C         6.2853561654        3.7623709858       27.2420690902
  C         7.7180367375        3.1880224818       24.0585606470
  C         8.1677805049        5.0726511126       22.9514851558
  H         6.1913821828        7.0118624189       24.2317798021
  H         5.7340234245        6.7536104226       25.9203058516
  C         4.7485145553        5.4711127585       24.4367275248
  S         6.6563135758        1.4661702856       26.0096352478
  C         6.1888292929        2.3894861941       27.3991211329
  H         6.1453255642        4.5393720207       27.9317841338
  C         8.1233946745        2.4836828709       22.9394842380
  H         8.0249660452        6.1690054146       22.9327540142
  C         8.5238468714        4.4181838760       21.8316928497
  H         4.8476252583        4.8842648576       23.5586808393
  H         4.4204195668        4.7696511777       25.2121938217
  C         3.3869771224        6.2805260955       24.3717933161
  C         5.8342707777        1.6914513498       28.7165259815
  C         8.5380883038        3.0537534402       21.7748222407
  H         8.1572567610        1.3925089407       22.8797996975
  C         8.8879244233        4.8057657524       20.6086067162
  H         2.7811961897        5.8109312425       23.6192317592
  H         3.6257277784        7.1594541020       23.7941697419
  C         2.6381003190        6.4761133091       25.7120911429
  C         5.7180950721        0.3155669499       28.9138552415
  C         5.3594867768        2.5075674562       29.8718423419
  C         8.9813526116        2.2785831567       20.4797005393
  C         9.1139773050        3.7587952429       19.7850379130
  S         9.2159317867        6.3708286292       19.9485083815
  H         2.0960987498        7.3631208389       25.5859047001
  H         3.3915760019        6.8847934504       26.3666224259
  C         1.9131212055        5.3442947838       26.4029617998
  N         5.9022499902       -0.6998920084       27.9677030505
  C         5.6200903264       -0.1839551527       30.2353740392
  C         4.8918793332        1.9186281704       31.0879193016
  H         5.2509147137        3.5381178686       29.7370600624
  C         7.9272475118        1.5565303237       19.5816443111
  C        10.2622557972        1.5279042837       20.5939177534
  C         9.4837181129        4.1553185383       18.4979371888
  C         9.6521373858        5.5351156375       18.4494604852
  H         1.1510753307        4.8912213141       25.7706327957
  H         2.5640304598        4.4992762428       26.4985105062
  C         1.3928731987        5.6923102207       27.7273860823
  S         6.0124525447       -2.1372624014       28.7513032914
  N         5.7386980533       -1.6292741113       30.2305077222
  C         5.2437963476        0.5424279434       31.3676614219
  H         4.6162172392        2.6434940826       31.9493359438
  H         7.5851095501        0.6111587345       20.0775814489
  H         8.3583259595        1.2425739777       18.6064304490
  C         6.5874299588        2.3390046041       19.4626625231
  H        10.4184300227        1.0122899545       19.6508942344
  H        10.1829376989        0.8001062879       21.3587753566
  C        11.4834252797        2.4499022756       20.9010069882
  H         9.4877894262        3.4628278800       17.7027380508
  C        10.0199261962        6.2451267829       17.1777955313
  H         0.6913329167        4.9305306542       27.9935353907
  H         0.8993359347        6.5910943782       27.6975282374
  C         2.5604953640        5.8110073476       28.7203060180
  C         5.0454819640       -0.0899713493       32.6459404246
  H         6.7414471177        3.0605032772       18.7158658527
  H         6.3844414140        2.9224679949       20.4205939708
  C         5.3531769114        1.4735265361       19.1337476912
  H        11.2458237153        3.1532262417       21.6127709593
  H        11.8795534362        2.9381200476       20.0292484787
  C        12.6893984415        1.5315588003       21.3992968242
  C        10.0958318591        7.6656740076       16.9191335227
  C        10.4951566295        5.4060856652       16.0115054587
  H         3.1774994128        4.9553416933       28.6587072246
  H         3.3152152300        6.5010163376       28.5629735453
  C         2.0563917631        5.6319276392       30.1270469811
  H         5.0849165875       -1.0905877172       32.4452259514
  C         4.8032668488        0.2268915176       33.9351777284
  H         5.0071242863        0.9710808736       19.9999406756
  H         5.5271733105        0.8108641934       18.3781221038
  C         4.1114244808        2.3190880534       18.6175267296
  H        12.4074558112        0.7712448634       22.1305618375
  H        13.0613218510        1.1755120422       20.4883237129
  C        13.8104588294        2.3961072049       21.9132769504
  N         9.8169565398        8.6813844148       17.8658905709
  C        10.4650071835        8.2209292818       15.6886410788
  C        10.7409150432        5.9685643255       14.7260209576
  H        10.6196230630        4.4037315571       16.0667583541
  H         2.9333071329        5.6071564209       30.7306501268
  H         1.4264582278        6.5384218126       30.5289844294
  H         1.3837208130        4.7478029815       30.1811240860
  S         4.2903015287        1.7548484331       34.5209675861
  C         4.8540165405       -0.8478964989       34.9721276702
  H         3.8473273084        3.0202832145       19.4174492755
  H         4.4345023317        2.9300859485       17.7429328255
  C         2.9057964048        1.3656723153       18.4586037902
  H        13.4555198858        2.8933185291       22.8477476443
  H        14.1539933759        3.1453197771       21.2107842512
  C        15.0079429315        1.5429902785       22.3786164218
  S         9.9739052376       10.1141160999       17.1663207763
  N        10.3413770404        9.6741439274       15.6506089029
  C        10.6855077454        7.4314565670       14.5544162707
  H        10.9498448626        5.2813652374       13.9207930066
  C         4.2328274380        1.0150501596       36.1055172896
  N         4.4056535001       -0.3475918061       36.0975350477
  O         5.2997143969       -2.0002322813       34.7701917727
  H         1.9242244955        1.8039065860       18.6040518767
  H         2.9499193873        0.6322467111       19.2973739454
  C         3.0049895355        0.6000043929       17.1346177354
  H        14.4027691240        0.8974041690       23.0641754832
  H        15.3993562568        0.9433062413       21.5996713313
  C        15.8961181972        2.5041403814       23.0854393369
  C        10.8526148668        8.1875818982       13.3214316688
  S         3.6916496854        1.9247652414       37.5633811514
  C         4.3404651474       -1.1883965159       37.2782999463
  H         2.7951881504        1.2957477872       16.3256316131
  H         3.9596783052        0.3288480394       16.7997266222
  C         1.8958512494       -0.4954460056       17.0955465205
  H        15.3900148442        2.5322248857       24.1001427927
  H        15.8166317735        3.5031239820       22.6323930870
  C        17.3527796305        1.9697178051       23.3203613985
  H        10.7216824185        9.2803094447       13.3973209757
  C        11.5491840835        7.9090817815       12.1836249214
  H         3.6637376598       -0.7367670606       37.9384267427
  H         3.9113393514       -2.1905676028       37.1301105307
  C         5.7149330732       -1.1570579216       37.9709191229
  H         1.4562928015       -0.5767994767       16.1441992555
  H         1.0073157198       -0.1040130873       17.5731708762
  C         2.2274050968       -1.9078005813       17.5608822107
  H        17.9134201506        2.5227825701       24.1440169236
  H        17.2762898119        0.9755139013       23.7675451577
  C        18.0091896422        2.1579946243       21.9850109852
  S        12.1997578974        6.3762590368       11.7797610790
  C        11.5342838790        8.9430389101       11.1929059648
  H         6.0899161656       -2.0901780359       38.2615752000
  H         6.4422099725       -0.7031541268       37.3168826216
  H         5.6359010505       -0.5242698742       38.8519063287
  H         1.6715704717       -2.7547187625       16.9913769626
  H         2.1071723653       -2.0637761441       18.6293329897
  H         3.3148916885       -2.1076612787       17.4199459005
  H        17.9906470017        3.2087655873       21.7171660626
  H        17.3166744692        1.6581834034       21.1702776328
  H        19.0229056876        1.8103394907       21.9979965721
  C        12.4328919571        7.1735239360       10.1912568402
  N        12.1834627476        8.5076634461       10.1488319826
  O        11.1378695396       10.1177063466       11.3108763777
  S        13.2278898036        6.2876740915        8.8731465873
  C        12.5437886228        9.4267623755        9.0963195883
  H        12.6145451266       10.4555365112        9.4638899126
  H        13.5839543559        9.2803445642        8.6474726181
  C        11.3472560096        9.4993711640        8.0182969732
  H        10.3369894344        9.6917704206        8.4171122227
  H        11.6022988816       10.2436536250        7.2702928532
  H        11.1454892973        8.6037671147        7.5346060954
  H        -3.9128799908       13.4406398937       16.4398963373
  C        -2.8849875081       13.6160881940       16.5025778980
  H        -2.2707936822       12.7435150987       16.8002735678
  C        -2.7055842787       14.7523830854       17.4446957091
  C        -2.3083285411       14.0177312669       15.1563060532
  C        -2.9458533093       14.3603794867       18.9608589063
  H        -1.7531303736       15.2379978054       17.3179400392
  H        -3.3772549281       15.5019378300       17.1287303556
  H        -2.6494951541       15.0872841174       14.9242027435
  H        -1.2828000572       13.7840849687       15.0631838600
  H        -2.8284834213       13.4751253389       14.2727345395
  C        -1.6108548174       14.1152010852       19.7322716467
  H        -3.4786513133       13.3601288198       19.0179442772
  H        -3.6589701172       15.0362372883       19.4776060571
  C        -1.9696886538       13.9126886839       21.2102710668
  H        -1.1302546466       13.1846815525       19.4558233338
  H        -0.8855535869       14.8834727254       19.6095357891
  C        -1.0086577678       13.0843418026       21.9535307240
  H        -2.9457017902       13.4000492402       21.2874315899
  H        -1.9578766282       14.8745481143       21.7352215942
  C         0.1451326645       13.8373800668       22.4168141060
  H        -1.4879143659       12.6674241237       22.8482930346
  H        -0.6951081300       12.2323348832       21.3096602352
  C         1.2528320948       12.9985242656       23.2218710669
  H         0.6011401074       14.4319769524       21.6177334382
  H        -0.3760273779       14.5963030266       23.0759075989
  C         1.4689475294       11.6728414155       22.5116866525
  C         0.7068235560       12.2903583945       24.3403768868
  C         2.4459174596       13.9024803318       23.4743464601
  C         1.2280297966       10.5441684070       23.2792274859
  C         1.9704344685       11.3326381639       21.1777075585
  C         0.7115012719       10.9449005490       24.5067833361
  C         0.2240553911       13.0117692239       25.4173211586
  H         2.5862139532       14.6488530750       22.7772764622
  H         2.3370461622       14.4120096981       24.4176014211
  C         3.7893701058       13.1586958905       23.7231836865
  S         1.5455609342        9.1148146496       22.4769609404
  C         2.0454727906        9.9753001988       21.0698722929
  H         2.2452043885       12.1673824558       20.6172864412
  C         0.2997485262       10.3459206014       25.6613616898
  H         0.1852651004       14.0344286320       25.4367605997
  C        -0.1957615772       12.3965591080       26.6240744071
  H         3.8154097323       12.5160941302       22.8844731863
  H         3.7988125306       12.4758010627       24.5990018357
  C         5.1027127233       14.0294033620       23.6648036261
  C         2.4955743004        9.3104079266       19.8064114196
  C        -0.1804711754       11.0580757467       26.7950619499
  H         0.3458799360        9.3244538126       25.7990178374
  C        -0.5520947105       12.7436141391       27.8886550238
  H         5.8499837829       13.6933871248       24.3614980885
  H         4.7991128669       15.0584760101       23.9356762114
  C         5.6595932172       14.1176844325       22.1930683574
  C         2.4036385173        7.9318141596       19.5594762412
  C         3.0101213529       10.1184339748       18.6598263347
  C        -0.6504897585       10.3608224243       28.0366603984
  C        -0.8254778983       11.6874633927       28.6997105215
  S        -0.7305123343       14.2307693952       28.6868329806
  H         6.1747466013       15.1388892641       22.0122544090
  H         4.7505421607       14.1376949621       21.6169521587
  C         6.6442775545       13.0493167343       21.8952693305
  N         2.1285282268        6.9043844189       20.4731810634
  C         2.7171045059        7.4166874411       18.3193425113
  C         3.3963164090        9.5694465684       17.4886360398
  H         3.3324861079       11.1478710827       18.7244448724
  C         0.4504384493        9.5531425035       28.7092281955
  C        -1.9551852697        9.5417820250       27.7956158417
  C        -1.2048923872       12.1087814214       30.0071798149
  C        -1.1904568203       13.4667695559       30.1596991660
  H         7.4301398890       12.9278838282       22.6140301698
  H         5.9656215684       12.1735648226       21.9683177812
  C         7.2989852188       13.0264872537       20.5586250111
  S         2.2025696013        5.4001230196       19.7021955979
  N         2.7016037841        6.0185205360       18.2630399238
  C         3.1171892605        8.1669740956       17.1978297986
  H         3.8935771484       10.1953357781       16.7769611837
  H         0.8603068326        8.7730949765       28.0082804571
  H         0.1979156939        8.9915804343       29.5669768857
  C         1.7713679774       10.3602647081       28.9394569234
  H        -1.7148252145        8.6662112865       27.3012542194
  H        -2.3252476251        9.1915525485       28.7151568895
  C        -3.1222413034       10.3390361479       27.2239205846
  H        -1.4154512556       11.4374366219       30.7806523032
  C        -1.5447369103       14.1801820477       31.4400012469
  H         7.8092165881       12.0783819852       20.4280170760
  H         7.9602315227       13.8731317120       20.5201973888
  C         6.4509879070       13.2711440973       19.3206833565
  C         3.4357266545        7.4950696374       15.9431636911
  H         2.1540340136       10.8188744334       28.0050070730
  H         1.6303928493       11.2051136910       29.6595136207
  C         2.9140005856        9.4851129759       29.3940867515
  H        -2.7975764087       10.9581665472       26.3895662127
  H        -3.4984988401       11.0550746227       27.9493031966
  C        -4.3422130573        9.4810443973       26.8355034725
  C        -1.6044220478       15.6311497861       31.6096732553
  C        -1.8720575705       13.3444252377       32.5628882413
  H         5.5607461911       12.6107410844       19.2637687347
  H         6.0748590799       14.3014106355       19.3021559655
  C         7.3157664044       13.2634598932       17.9905627825
  H         3.3129017926        6.4271420963       15.9143175465
  C         3.6476117031        7.9696725448       14.6613079209
  H         3.1684059126        8.7836019068       28.5964047254
  H         2.5202328577        8.8121637056       30.1167368233
  C         4.1296586056       10.2329993466       30.0914997387
  H        -3.9857868284        8.6994952643       26.3170248704
  H        -4.7720930607        9.0900912209       27.7797563578
  C        -5.4405754863       10.1492371865       26.1055105515
  N        -1.3822035636       16.6755060815       30.6275843711
  C        -1.9431014028       16.1411326295       32.8667370317
  C        -2.2146081633       13.9415194283       33.7517497250
  H        -1.9240987937       12.3090441724       32.5904292280
  H         8.0509348459       12.4889320874       17.8650161586
  H         6.6027201510       13.0859664376       17.1897740236
  H         7.8041603825       14.2314015490       17.7683857438
  S         3.8649988556        9.6175277405       14.1889233267
  C         3.8785869761        6.9558282450       13.5632661544
  H         4.2608850474       11.1181580967       29.5735676002
  H         3.7560736836       10.4161828411       31.1506581565
  C         5.4145903901        9.4926088162       29.9931137429
  H        -5.5266332929        9.5657964896       25.2069611250
  H        -5.2128130830       11.1582670681       25.6694797486
  C        -6.7469199739       10.1163568003       26.8235532774
  S        -1.4706322654       18.0477687767       31.3864797457
  N        -2.0337426159       17.5153135895       32.8009183089
  C        -2.3660194541       15.3414416049       33.9378970890
  H        -2.3870935534       13.2055022565       34.5051937416
  C         4.1564189693        8.9656226058       12.5918888540
  N         4.1861522019        7.6402190390       12.4563015245
  O         3.8598174198        5.7291392949       13.6685451363
  H         6.2529142435       10.0653439327       30.3554955886
  H         5.6723701856        9.4666697095       28.9489593476
  C         5.3905891344        8.1060973830       30.7437471956
  H        -7.1343886572        9.1436427818       26.8211376483
  H        -6.6303251765       10.3542254492       27.8668488374
  C        -7.7917164961       10.9633643887       26.1679238155
  C        -2.5547841506       16.0530947424       35.1728283074
  S         4.4714559443        9.8967433075       11.1321667047
  C         4.1276414299        6.9096431898       11.1317187833
  H         5.2798641402        8.3588409103       31.8001608488
  H         4.4929531170        7.5610248152       30.5154192564
  C         6.5307889045        7.1816873272       30.3900456578
  H        -7.4234495041       11.9155671893       25.6748472849
  H        -8.4768450255       11.2000530896       27.0148210949
  C        -8.6810050737       10.1117042847       25.2691747476
  H        -2.2985798279       17.1335415969       35.2597231010
  C        -3.1929704427       15.7021434477       36.3538292039
  H         4.8835293058        7.4382670100       10.4874197366
  H         4.5230776748        5.8870908925       11.0546891139
  C         2.7851396910        7.0093357579       10.5617312087
  H         7.4427526126        7.6656063168       30.6360228324
  H         6.5405681693        7.0373055394       29.3536877193
  C         6.4205529303        5.8975508308       31.1094011225
  H        -8.7922714391       10.6442627649       24.3523552251
  H        -8.2669772739        9.1420126986       25.0494105835
  C       -10.1760684120        9.8830029049       25.7541112493
  S        -3.8627236480       14.1243175906       36.7138268115
  C        -3.3208999084       16.6881623599       37.4072725949
  H         2.8255688332        7.9056607879        9.8196284322
  H         2.4775997213        6.1260716197        9.9324009007
  H         1.9332799771        7.3078963700       11.1926480683
  H         5.5096590118        5.3855878427       30.8962574990
  H         6.3231469051        5.9655254724       32.2238891573
  H         7.2796700153        5.2977046453       30.9079185541
  H       -10.2647208962        9.2276055122       26.5912815319
  H       -10.7984207884        9.4279061178       24.9667107682
  H       -10.6854071480       10.7697518682       25.9532169593
  C        -4.3214314040       14.7397326647       38.2252330854
  N        -3.9799092917       16.0618484215       38.4104225997
  O        -3.0595721425       17.9073389340       37.2923788305
  S        -5.0140291799       14.0104651564       39.6585234049
  C        -4.2030148479       16.8279462095       39.5970542011
  H        -4.1421423340       17.9314200960       39.5032664089
  H        -5.1820490953       16.6607077369       39.9864804487
  C        -3.0413623183       16.5591424056       40.4685572785
  H        -3.2900207035       15.7349808400       41.1202295962
  H        -2.0355560646       16.3949309383       39.9888686914
  H        -2.9739590536       17.4718051125       41.1034658450
