352
 i =    60200, time =    60200.000, E =        24.7897688758
  H        10.2159202761        4.7686191112       31.4679529917
  C        10.5781645240        5.7225474118       31.7216553114
  H         9.8345447345        6.4839558008       31.4770480244
  C        11.8058689912        6.1288689072       31.0093927793
  C        10.6776432917        5.7845985329       33.2661727715
  C        11.8823311891        5.6836811589       29.4847485528
  H        11.8757995187        7.1942480416       31.1125623705
  H        12.6863617968        5.7616659274       31.5329655037
  H         9.7407770606        6.1379260009       33.6840170145
  H        10.8615424021        4.7192139139       33.5916938725
  H        11.3604153606        6.5587761096       33.6478541761
  C        10.6456297025        5.7267067566       28.6283445437
  H        12.2181133087        4.6162454820       29.4966037627
  H        12.5393389745        6.3578661747       28.9935041302
  C        10.9395117489        5.4651437169       27.1901670994
  H         9.9112526602        4.9602995930       28.9541417679
  H        10.0989478124        6.6412706601       28.7778837353
  C         9.7409938634        4.7596476887       26.4424044505
  H        11.8011510629        4.7749051837       27.0187266617
  H        11.1570802438        6.3894070579       26.6411917754
  C         8.5784129382        5.7206144049       26.0528215494
  H        10.2688132531        4.3313303168       25.5958527850
  H         9.3986296886        3.8266482503       26.9617414605
  C         7.4101826527        5.0122260679       25.2997574396
  H         8.3103085204        6.1039683837       26.9995628436
  H         8.8185947188        6.6379987652       25.4811390803
  C         7.0009620945        3.6950741255       25.9743908342
  C         7.8015466583        4.2016616898       24.1432232683
  C         6.1939268710        5.9658869283       25.0100433137
  C         7.2300063215        2.5526907688       25.2650920667
  C         6.4601215415        3.3552716060       27.2688684602
  C         7.6707900330        2.8712285800       23.9995876250
  C         8.2472075055        4.8113245899       23.0012720993
  H         5.5260162955        5.7260881103       24.0967715518
  H         6.7695983402        6.8819356894       24.6907779497
  C         5.1887874410        6.4339665164       26.0330812464
  S         6.6985254931        1.0744664750       26.0368096298
  C         6.1972987032        1.9848820076       27.3945452846
  H         6.2476718428        4.0730549769       28.0261029852
  C         8.0370368203        2.2941357013       22.8541825932
  H         8.1941567010        5.8659040208       23.0566577280
  C         8.5782851377        4.2881518961       21.8089076280
  H         5.2999821308        5.7968889529       26.8644234123
  H         5.3087802526        7.4867088219       26.3782838199
  C         3.7377713026        6.1965605040       25.4709464408
  C         5.6590592184        1.4114360976       28.6754593190
  C         8.5079213016        2.9536533752       21.7307205377
  H         8.0167838995        1.2318991865       22.8214519636
  C         8.8739352649        4.6047221025       20.4887040362
  H         3.6707061562        5.2132922131       24.9840500039
  H         3.5662419368        6.9544535098       24.7011816146
  C         2.6511289213        6.4179429153       26.5009634576
  C         5.6521049139        0.0125616294       28.9698642380
  C         5.1473964712        2.2765709276       29.7839224104
  C         8.8409477194        2.1727928294       20.4716267837
  C         9.0650351371        3.4768948832       19.7350360234
  S         9.2335604937        6.0406554775       19.5645914362
  H         2.0058179596        7.1266443305       26.0265197378
  H         3.1277813695        6.9044915380       27.3373709476
  C         2.0107618817        5.1655987897       26.9781763802
  N         6.1017864912       -0.9962492656       28.0399772219
  C         5.3791001984       -0.4815265694       30.2428053890
  C         4.9923864533        1.8388866511       31.1466246041
  H         4.9493821104        3.3335093417       29.4762770312
  C         7.6865601610        1.3952976398       19.8504795167
  C        10.1542662148        1.2966904232       20.4609699719
  C         9.5014595030        3.7992455336       18.3928417095
  C         9.6658521434        5.1366337560       18.1558049591
  H         1.4355501920        4.7685815638       26.1577320031
  H         2.8269015683        4.4535902380       27.1462306311
  C         1.1493072248        5.4825002267       28.2238243052
  S         6.1107605585       -2.4229887830       28.7536799069
  N         5.5239211359       -1.8879619698       30.2270961999
  C         5.0693070207        0.3572965547       31.3927691840
  H         4.7913185054        2.4890079270       31.9393958564
  H         7.4028318506        0.5414920767       20.4559653140
  H         8.0511141341        1.1426041089       18.8626306405
  C         6.3829645222        2.2519586191       19.6002193834
  H        10.3360197477        1.0003247125       19.4295422637
  H         9.9930008023        0.4043139801       21.1104587342
  C        11.3542441135        2.1351860142       21.0454508929
  H         9.6440215730        2.9908193594       17.7845736545
  C        10.0353783285        5.8126016745       16.8466835932
  H         0.2884227288        4.7407037080       28.3403545817
  H         0.7700964463        6.4649814687       27.9934862176
  C         1.9721194893        5.5300544241       29.5320046492
  C         4.9575527423       -0.2276921357       32.6631828515
  H         6.4336532496        3.1105282363       18.8485460596
  H         6.1253537105        2.6961873816       20.5344075582
  C         5.0853614258        1.3465617020       19.1923735060
  H        11.1095328961        2.6005858478       21.9655931680
  H        11.6595975837        2.8861361422       20.3229089603
  C        12.5302992416        1.1380417544       21.1129327422
  C        10.1381892488        7.2620378944       16.6801573502
  C        10.3253666148        4.9788022597       15.6559916069
  H         2.6674446384        4.6897722069       29.5361964584
  H         2.7304999436        6.2512746308       29.4891568957
  C         1.0933451775        5.6417449798       30.7517423532
  H         5.3648057004       -1.2746312114       32.6882923631
  C         4.7891620113        0.1532237510       33.9907827759
  H         4.4472485745        1.1301622798       20.0052546913
  H         5.3651671236        0.4233471786       18.9020596308
  C         4.0643701758        2.0294227058       18.2072342772
  H        12.2349741397        0.5599169293       21.9979323463
  H        12.6441384520        0.5000748376       20.2361759247
  C        13.8694662668        1.7646210334       21.4108139350
  N         9.8435587285        8.2422299739       17.6520534193
  C        10.4076685821        7.8869873391       15.4718753461
  C        10.5432055637        5.6585175028       14.4616428691
  H        10.3350930763        3.9333905024       15.5859462829
  H         0.2986733618        4.8896696781       30.7921438215
  H         1.7470851124        5.5469669323       31.6536260926
  H         0.5776410460        6.5941145994       30.8409348299
  S         4.5369490270        1.7226874313       34.6224809293
  C         4.6642250376       -0.9432204628       34.9346212664
  H         4.0205215250        2.9804949573       18.6091731780
  H         4.4921869727        1.9719549712       17.2226230449
  C         2.6156395957        1.5052969172       18.0615993770
  H        13.9325514490        2.6887903854       20.7702878315
  H        14.7251836906        1.1329769734       21.0345624268
  C        13.9821789496        2.1840413628       22.9242520771
  S        10.0357988805        9.7224895462       17.0159272357
  N        10.5763669645        9.2286024591       15.5484515380
  C        10.6989545904        7.1460127880       14.3193901144
  H        10.5638129078        5.0857383873       13.5755658101
  C         4.3430536692        0.8505977343       36.1721473698
  N         4.4218444243       -0.4871219253       36.1293417880
  O         4.5294174378       -2.1047645616       34.6296752147
  H         1.9708308518        2.2818624952       17.7371243567
  H         2.2376537833        1.1542045765       19.0630958927
  C         2.5495857451        0.3063966438       17.0940171037
  H        13.1844572804        2.9271787799       23.1146166194
  H        13.7535114374        1.3934393937       23.5505326996
  C        15.3596594536        2.8062541688       23.2360479294
  C        10.9381637917        7.8246046642       13.0765035677
  S         3.9942395937        1.6552451826       37.6565054139
  C         4.3057448909       -1.3731916806       37.3142103872
  H         2.4575631950        0.7540275466       16.0852235155
  H         3.4794547469       -0.1618874635       17.0820381535
  C         1.3392074439       -0.5851760359       17.4318112007
  H        15.2940286908        3.4031548695       24.1465167753
  H        15.6007080504        3.5257523430       22.5210935920
  C        16.5768179762        1.8181246091       23.2944092730
  H        10.6653008864        8.8263075470       13.1969077605
  C        11.5203421174        7.5422929151       11.9023659918
  H         3.5497983197       -1.0084732883       37.9290415672
  H         3.8820753881       -2.3642035075       37.0700274876
  C         5.6273926167       -1.5083124747       38.0970344893
  H         0.6704658455       -0.5669319150       16.5684361216
  H         0.6996172442       -0.2241581033       18.2365388769
  C         1.6966824545       -2.0320548532       17.8310542636
  H        16.8448544499        1.6866245469       24.4097607924
  H        16.2704713964        0.8461206240       22.9933435760
  C        17.8179802889        2.2620200564       22.4798036284
  S        12.4229865578        6.1596599649       11.5713044774
  C        11.5278061306        8.5953126748       10.9009759463
  H         5.4442333463       -0.9173834023       39.0173221145
  H         6.0061709219       -2.4976980850       38.2501676590
  H         6.4593407891       -1.0438234504       37.5351991585
  H         2.5436976657       -2.1320208487       18.4752954730
  H         1.9348268357       -2.5881888966       16.8971965190
  H         0.9011390564       -2.4796060188       18.4228677245
  H        17.8596402484        1.6231186365       21.5582354289
  H        18.7337381735        2.0996440279       23.0921956178
  H        17.8080672521        3.3231816314       22.2186993707
  C        12.7820682986        7.0530535594       10.0643124389
  N        12.1846200695        8.2122844980        9.8515244656
  O        10.8416631671        9.6126639756       10.9840556009
  S        13.5370345864        6.2669066732        8.6241661409
  C        12.2465919041        9.0022529770        8.6015461416
  H        12.5189858139       10.0460887524        8.8593352168
  H        12.9321874511        8.7327440774        7.8424539048
  C        10.7927559314        9.0299803769        7.9976767774
  H        10.1474395761        9.8167656759        8.3695233583
  H        10.8186512293        9.3510673555        6.9509698243
  H        10.3923778017        8.0397070106        8.1325224712
  H        -4.3387816851       12.6854107262       16.4671218659
  C        -3.3589126290       13.3011748203       16.5019815666
  H        -2.4939821375       12.6551504940       16.7307995221
  C        -3.4053808885       14.3710516082       17.6873739352
  C        -2.9590751671       13.9894458347       15.2091286622
  C        -3.6024176606       13.7706949021       19.1219416730
  H        -2.3669264884       14.7979592493       17.6892090819
  H        -4.2299789487       15.0610140388       17.5872230002
  H        -3.6084404630       14.7978868325       15.0835860897
  H        -1.9927341792       14.4102054557       15.2443255100
  H        -3.0292770213       13.4247539345       14.2663304552
  C        -2.3423677560       13.7487658773       19.9707678694
  H        -3.9117218882       12.7944312006       19.0079886477
  H        -4.4186967404       14.2288558736       19.6434210225
  C        -2.6147266598       13.5636755819       21.4993495390
  H        -1.7500702392       12.8806959334       19.5973889909
  H        -1.6760069349       14.5530060675       19.8712213037
  C        -1.4821578440       12.8954193851       22.1993635288
  H        -3.4980435534       12.9053397433       21.6206445442
  H        -3.0752652285       14.4408755833       21.7993843094
  C        -0.2400368159       13.8079227022       22.6534085425
  H        -1.8504817373       12.6105833655       23.2095720243
  H        -1.2612048014       11.9298230336       21.8115341845
  C         0.8234101789       12.9436151530       23.4131317583
  H         0.2966265803       14.2609524671       21.8446138961
  H        -0.5723163595       14.6586192512       23.2763402800
  C         1.1932455584       11.6154232375       22.7532533825
  C         0.3373289770       12.2308805948       24.6249881873
  C         1.9879932095       13.8758872805       23.5625929359
  C         0.7883012935       10.5093142730       23.4877553528
  C         1.6790853906       11.2398197864       21.4933697280
  C         0.3740468124       10.8899163600       24.7327459043
  C        -0.2244355895       12.9804861215       25.6258572765
  H         2.1086308142       14.6260759583       22.8043906589
  H         1.7228925979       14.4631481157       24.4566143609
  C         3.3290762895       13.2986803020       24.0753724450
  S         1.2339790193        8.9963236278       22.7879103039
  C         1.8873488834        9.8577484445       21.4665633733
  H         2.0446126992       12.0222571999       20.8417476307
  C        -0.1075096687       10.3310060232       25.9151728049
  H        -0.3067995607       14.0318863555       25.4222256925
  C        -0.6482499349       12.4252005781       26.7938271626
  H         3.5129928220       12.3816511458       23.5486817631
  H         3.2148482759       13.0313888998       25.1773615535
  C         4.5381874202       14.1862197288       23.8875878847
  C         2.4346395029        9.1160376358       20.2600811257
  C        -0.6309717437       11.0701886672       26.9717178745
  H        -0.0055086165        9.3110614707       26.0563642280
  C        -1.0447811621       12.8673599179       28.0163902299
  H         5.3202351151       14.0326315341       24.5671095805
  H         4.2401628652       15.2694182061       24.0110209808
  C         5.0522379538       14.1630608495       22.4074243707
  C         2.2939042316        7.7701798978       19.9419037359
  C         3.0259957253        9.9941483366       19.1841253029
  C        -0.9518760421       10.4221015395       28.2779803443
  C        -1.1676294298       11.7613525023       28.8890186572
  S        -0.9382314801       14.4356649927       28.7664640639
  H         5.6645633549       15.0562222165       22.1756395154
  H         4.1724456847       14.2698555126       21.8593589855
  C         5.8649146552       12.8771733359       22.0685905227
  N         1.9338664294        6.7722549721       20.8692098194
  C         2.5510800874        7.2372282721       18.6568954886
  C         3.2293244122        9.5138584767       17.8489086550
  H         3.4077157363       10.9357195870       19.4325463774
  C         0.2501881682        9.8291823436       29.0519428733
  C        -2.1481203933        9.4013733846       28.1305661441
  C        -1.3669112299       12.2019679676       30.2189357408
  C        -1.1825389345       13.5704875207       30.3417849601
  H         6.4351573188       12.5419213233       22.8457383675
  H         5.1491277226       12.0820812160       21.7194610869
  C         6.9191210885       13.0798244413       21.0487858749
  S         1.8397527210        5.3782384980       20.1072012887
  N         2.3441465486        5.8572556531       18.5878249157
  C         2.9909623887        8.0617011995       17.5365532094
  H         3.6526656486       10.1236522195       17.1312165917
  H         0.4973319883        8.8527223565       28.6722493809
  H         0.0223759718        9.6622457066       30.0938203490
  C         1.6212526770       10.5116887726       29.0886216317
  H        -2.0291448719        8.7596487836       27.2812746352
  H        -2.0708481936        8.8156439040       29.0989868821
  C        -3.4347827303       10.1990071630       27.9843404921
  H        -1.6288480117       11.4536199560       30.9509467596
  C        -1.4709793627       14.2615588068       31.6280822041
  H         7.4953927379       12.1510650862       20.9336207515
  H         7.5960962999       13.8207157931       21.2635394829
  C         6.1462935098       13.4092706540       19.6680650301
  C         3.1454213349        7.4528453875       16.2822508718
  H         1.8517620298       10.9416241863       28.1829696304
  H         1.5921704207       11.3211810743       29.8195503485
  C         2.6820213304        9.5494126431       29.7751699036
  H        -3.2783007375       10.9059463361       27.1447855453
  H        -3.8005048199       10.8216737756       28.8388424319
  C        -4.6021048330        9.2029608954       27.4689406542
  C        -1.6066907167       15.6551938824       31.7760961715
  C        -1.5893736305       13.4763599191       32.8545328477
  H         5.5268974893       12.5480930445       19.5395133951
  H         5.3116921390       14.1465972702       19.6464593318
  C         7.0190336884       13.3406801096       18.4172381016
  H         3.1065491045        6.4166571955       16.2949689261
  C         3.4548689585        7.9826342206       15.0849552368
  H         3.0192907189        8.9758641679       28.9404300754
  H         2.1346649137        8.9606727404       30.4847310410
  C         3.6126609832       10.3704700807       30.5938342031
  H        -4.2179606753        8.5932406718       26.6467357491
  H        -4.9895329442        8.5254823326       28.1979478237
  C        -5.6515379935       10.1208442042       26.9291029063
  N        -1.5342337395       16.5918618408       30.7487671673
  C        -1.8574389287       16.2847899747       32.9780911839
  C        -1.8626662147       14.0573304356       34.0435028495
  H        -1.4102131091       12.3903212909       32.8151502172
  H         7.6701257508       12.4636536266       18.4084895571
  H         6.3866189005       13.2400868578       17.5603350530
  H         7.6040576490       14.2549083349       18.3137405358
  S         3.6435630459        9.6206117267       14.6761347647
  C         3.6102505245        6.9921303373       13.9454975564
  H         3.9151831555       11.2094969911       29.9520953582
  H         3.1219151648       10.7928270700       31.4410356529
  C         4.7628066198        9.4402844807       30.9255725949
  H        -5.1977654090       10.8838756717       26.3275541447
  H        -6.0173562384       10.7473742159       27.7665241633
  C        -6.7626608363        9.3376571566       26.1637052188
  S        -1.5716655131       18.0642504473       31.3399740766
  N        -1.9298176004       17.6722570289       32.8663426081
  C        -2.0013595576       15.5254697031       34.1602992420
  H        -2.0686623293       13.4235894869       34.8714855794
  C         4.2285565931        8.9847526361       13.0984219222
  N         4.0516135290        7.6706890266       12.8917180335
  O         3.5136931304        5.7380448174       14.0559513047
  H         5.5014870986        9.9764847370       31.5891470868
  H         5.1964830005        9.1441476012       29.9417675043
  C         4.4135941059        8.2068105400       31.6433543068
  H        -6.3655436938        8.7013888281       25.3721293948
  H        -7.4865941077        8.7570656465       26.7461664203
  C        -7.4817069200       10.4287418257       25.4019759833
  C        -2.4142997326       16.3285223713       35.2775535872
  S         4.5929605970        9.9890198355       11.6648529908
  C         4.2662366521        7.0084090797       11.6099488326
  H         3.8790524639        8.4202732080       32.6056638179
  H         3.7762274760        7.4834975956       31.1402311116
  C         5.7785827166        7.5867924794       31.9593383500
  H        -6.7659314276       10.7506241486       24.6160865371
  H        -7.3967569281       11.2538001842       26.1426379099
  C        -8.8408316383       10.0871507304       24.9081695062
  H        -2.2625599222       17.3601682113       35.2053967055
  C        -3.0019390158       15.9542225095       36.4687106570
  H         5.0364928527        7.5463198072       11.0550783150
  H         4.6359525600        5.9711516588       11.7206580994
  C         2.9957501164        7.0216161991       10.7709167630
  H         5.6605643316        6.9497846308       32.7943610841
  H         6.4421890496        8.3237735213       32.3343397010
  C         6.5550529924        6.8152595091       30.8721431522
  H        -9.1389361654       10.7115746579       24.0365603235
  H        -8.6544126161        9.0883698259       24.5278786839
  C        -9.9270355274       10.0157688987       25.9725855293
  S        -3.5542485627       14.4408463283       36.8275205679
  C        -3.0814278038       17.0048860817       37.5479226940
  H         2.9821342061        8.0222711809       10.4769144691
  H         2.9773640666        6.4686622065        9.7936859425
  H         2.1445795007        6.5834988471       11.3453881931
  H         5.8911835834        6.0728055650       30.4149254126
  H         7.5369420506        6.4502624203       31.1105758146
  H         6.6477325837        7.4984857935       30.0371341799
  H       -10.8659203868        9.6868396799       25.6325215966
  H       -10.1037433476       11.0222515297       26.3553919873
  H        -9.6581029504        9.3686178110       26.8145544703
  C        -3.9354523685       15.0688597974       38.4048451121
  N        -3.8401884006       16.4396933976       38.5420656137
  O        -2.7104541823       18.1346384234       37.4273920448
  S        -4.5984926587       14.2100586342       39.7547005553
  C        -4.1409522300       17.2129576622       39.8180754296
  H        -4.3343224906       18.2863853076       39.5437373192
  H        -5.0066566250       16.7770477391       40.2852371859
  C        -2.9023645930       17.1430389497       40.6828823580
  H        -2.0506674062       17.8119333341       40.2961514337
  H        -3.1159065769       17.6435797774       41.6518448551
  H        -2.5826077470       16.1126026293       40.8444237554
