352
 i =    59700, time =    59700.000, E =        24.7249090909
  H        10.9599699576        4.3257352622       31.5129294542
  C        11.0320998522        5.4005876441       31.7963535626
  H        10.0298785432        5.7929600844       31.7509042412
  C        11.8609582790        6.2960689368       30.8621698773
  C        11.3444583953        5.6524919736       33.3071945643
  C        11.9013617602        5.6226830276       29.4899879648
  H        11.3938257255        7.3077233781       30.8188522824
  H        12.8448320196        6.3453367920       31.1653017815
  H        10.4510857830        5.7233757078       33.9802090176
  H        11.9240799323        4.7954754154       33.6627189627
  H        11.7245814421        6.6384390319       33.5412092553
  C        10.5330769821        5.4173999517       28.8478149855
  H        12.3077826484        4.6770988537       29.6960655756
  H        12.6175830622        6.1229395785       28.8249034259
  C        10.6668829497        5.4436148915       27.3234593770
  H        10.0775386724        4.4783773604       29.0809422729
  H         9.7965802845        6.1389218539       29.1232511704
  C         9.4607039069        4.6993995776       26.6371110489
  H        11.5040722134        4.8291923970       27.0224751499
  H        10.7846000781        6.4377604220       26.9294151232
  C         8.2377242941        5.6390747846       26.3223500317
  H         9.7484290977        4.2259795754       25.6645192807
  H         9.2099092397        3.9595395489       27.3427604152
  C         7.2469607849        4.9412318930       25.5293991784
  H         7.7524235247        6.1003667269       27.2247674535
  H         8.6926360807        6.4539649562       25.7542386786
  C         6.9153951818        3.5970111035       26.1981848727
  C         7.6808539557        4.2093115425       24.3106457411
  C         6.1067865591        5.8256087121       25.0143514450
  C         7.1270695623        2.4661106210       25.4243268989
  C         6.4319879337        3.2211669616       27.4635285239
  C         7.6675013370        2.8605769049       24.2079467132
  C         8.1942317819        4.8384709831       23.1561108934
  H         5.8719482194        5.2600705611       24.1587049339
  H         6.4228905389        6.8040583118       24.5581035422
  C         4.8623475928        6.0166410555       25.9049549671
  S         6.7504209552        0.9824038462       26.1643669892
  C         6.3175192332        1.8834110623       27.6146779388
  H         6.1811660371        4.0247233717       28.2096353154
  C         7.9907905297        2.2711131804       22.9255075867
  H         8.2095379003        5.9277524040       23.0208692679
  C         8.4877101959        4.2100201909       21.9038309857
  H         4.5914504300        5.2161706122       26.6552314242
  H         5.2127533279        6.8856181290       26.4217722078
  C         3.6152507478        6.2498799808       25.0520210474
  C         5.8603708937        1.2267956818       28.8945437901
  C         8.4924770182        2.8576281472       21.8054540197
  H         7.9946826239        1.2107145739       22.9132321886
  C         8.8236318526        4.5410885158       20.6023138313
  H         3.4284891459        5.4690209045       24.3748949799
  H         3.7763047722        7.1604605778       24.4793564681
  C         2.3122252968        6.3996801971       25.9521545582
  C         5.7765791911       -0.1733859379       29.1577074007
  C         5.4287467078        2.1664011650       29.9908626465
  C         8.7742775496        2.0505694197       20.5662668588
  C         9.0235613678        3.4226132346       19.7963351829
  S         9.0342835116        6.0627493916       19.8010082793
  H         1.5611032894        6.9252389654       25.3125998189
  H         2.4602310572        7.0445752482       26.8545624914
  C         1.7410784813        4.9664544354       26.2041983266
  N         6.0370977417       -1.1487726242       28.2475141783
  C         5.5506919528       -0.6151193922       30.4515981154
  C         5.1483637074        1.6678389545       31.2713517593
  H         5.2482336566        3.2310012089       29.8529494417
  C         7.4958093769        1.3644587928       19.9792411264
  C         9.9713918381        1.1457735964       20.6840074583
  C         9.3453904342        3.8000952857       18.4886618558
  C         9.3294724481        5.1609832515       18.3214686827
  H         1.0314438674        4.7564864705       25.3999107991
  H         2.4762966057        4.1764193064       26.2176048284
  C         0.9886141391        4.7474882010       27.4892662977
  S         6.1207756242       -2.5749236163       29.0421255589
  N         5.7671534723       -1.9626920190       30.5576261778
  C         5.2585516479        0.1764781020       31.6056422152
  H         4.8099497889        2.4281435557       31.8977543252
  H         7.2433808760        0.7758079277       20.8512097213
  H         7.7804517526        0.6317669305       19.1478487297
  C         6.3275397902        2.2503979709       19.4986952183
  H        10.0620097703        0.6937378737       19.7058082023
  H         9.9613136176        0.3567609841       21.3903849022
  C        11.1815213242        1.9560240389       20.8786942289
  H         9.6152267621        3.0317865108       17.7723632714
  C         9.6967398604        5.7892677245       16.9883301942
  H         0.6409933346        3.7613431965       27.3909780181
  H         0.1570882222        5.4311960783       27.7292059737
  C         1.9921244884        4.7401267326       28.6826540278
  C         5.2033302360       -0.4318564798       32.8859217207
  H         6.7454139711        2.8048483791       18.6813023286
  H         5.8219622827        2.9967822049       20.1701712362
  C         5.2267975093        1.3560638187       19.1372728382
  H        11.0750438663        2.5627430608       21.8603952035
  H        11.3913863490        2.5940004547       20.0260332681
  C        12.4017513675        1.0767536196       20.8642549539
  C         9.8039885832        7.1795453676       16.7784357028
  C         9.8923137245        4.9777688417       15.7605046062
  H         2.5306791880        3.8292941841       28.6833344516
  H         2.7515630117        5.5038850329       28.7519326998
  C         1.1077953196        4.7981162543       29.9221059658
  H         5.6955739437       -1.3754826147       32.9299802090
  C         4.9485232781        0.0887080576       34.0762027690
  H         4.7855954471        0.8971320316       20.0701092433
  H         5.5573723132        0.4584101920       18.4706804183
  C         4.1149550687        1.8914165022       18.2333493536
  H        12.2582457587        0.2825293051       21.5746486073
  H        12.4717599292        0.5724668813       19.9354767549
  C        13.6862597393        1.8716918374       21.2185876875
  N         9.5324928266        8.1154482080       17.8765403153
  C        10.1066504038        7.7951312284       15.5953543767
  C        10.0553354753        5.6076566778       14.5106675954
  H         9.8189995410        3.9753264994       15.8647607446
  H         0.1775296399        4.1752136212       29.7345612384
  H         1.6219914023        4.3690058798       30.7621836858
  H         0.7839500357        5.8303273336       30.2284074976
  S         4.2972171317        1.6499484222       34.4032183216
  C         5.0584977364       -0.8290474061       35.2843550172
  H         3.6538112177        2.7846724915       18.6554278933
  H         4.6339247812        2.2020891976       17.2858158874
  C         2.9683631235        1.0225705572       18.0394596636
  H        13.6342826661        2.8290957845       20.7397266738
  H        14.6545440594        1.5609567008       20.8395252765
  C        13.8725561111        2.1731782932       22.7101668076
  S         9.7525838474        9.5890624882       17.1934981210
  N        10.0900344873        9.1970151812       15.6782162147
  C        10.3022733385        7.0783483883       14.3889167843
  H        10.1226645950        5.0256860581       13.6459008152
  C         4.2018713669        1.0790763910       36.1152210574
  N         4.6365628676       -0.1642478351       36.3568473179
  O         5.5672925063       -1.9822714234       35.3198548074
  H         2.1211040564        1.6630870932       17.6519575073
  H         2.7192056808        0.6185744270       18.9862611761
  C         3.1332641509       -0.0932205432       17.1165566796
  H        13.0068741235        2.7271965114       22.9076648194
  H        13.8007672624        1.2160851410       23.3638996860
  C        15.0962108498        2.9734853282       23.0747940718
  C        10.6332989720        7.7884302796       13.1961937256
  S         3.8842206810        2.0443322300       37.5914271308
  C         4.5498027817       -0.9181728482       37.6384760246
  H         3.4447369187        0.2354612932       16.1102733839
  H         3.9271557275       -0.7827792015       17.5028869945
  C         1.8163001026       -0.8472904759       16.8590981601
  H        15.0540803845        3.2972781383       24.1451344755
  H        15.2122486641        3.7685554481       22.3278251306
  C        16.2906001483        2.0682623292       23.1366547142
  H        10.4649594237        8.8483305796       13.2549145746
  C        11.2743011500        7.4223710275       12.0305109705
  H         3.8503646621       -0.4435406143       38.3473313424
  H         4.1372637779       -1.9038906420       37.5007522611
  C         5.9936948943       -1.1417350359       38.2780868827
  H         1.5696132077       -0.8382729824       15.8062551773
  H         1.0181493777       -0.2901441033       17.3508777107
  C         1.7575063646       -2.3111138181       17.3258337180
  H        16.6285821756        2.1128952119       24.1209053038
  H        16.0997250147        1.0007827543       22.8668058943
  C        17.4171515124        2.4997092281       22.1539996216
  S        11.9048465273        5.8791738700       11.7282264040
  C        11.4060592390        8.4905614473       11.0159026919
  H         6.1476140960       -0.4222857857       39.0615998925
  H         5.9767360255       -2.1469985899       38.6923854519
  H         6.8667646136       -1.1722697331       37.5956350139
  H         2.0763383858       -2.3923375855       18.4059261961
  H         2.4000061780       -2.9360430829       16.7328351144
  H         0.7240088283       -2.6160367839       17.3263508975
  H        17.2758371740        2.0752623833       21.1789822796
  H        18.3854893290        2.2311430788       22.6009114490
  H        17.3776835508        3.5568506862       22.0183245589
  C        12.3854785696        6.6510723371       10.1869935541
  N        12.0944038479        7.9468273258       10.0172111981
  O        11.0803041615        9.6603076843       11.1874906931
  S        13.2036311773        5.7758802798        8.8691856509
  C        12.3367453606        8.6744239855        8.7930596262
  H        12.5195144931        9.7499939996        8.9433094844
  H        13.2357441694        8.2889400793        8.2967879105
  C        11.0623648410        8.4220604625        7.9670321848
  H        10.1804685644        8.9130290199        8.3361347419
  H        11.1390663445        8.8758778009        6.9887345600
  H        10.9192059490        7.3787401007        7.8803113989
  H        -3.7752271187       12.3467626197       16.2589618975
  C        -2.8173011537       12.6320622414       16.0356381551
  H        -2.2554583175       11.7599290928       16.1784265301
  C        -2.4437693506       13.6254967396       17.1120056060
  C        -2.6878710590       13.1850600374       14.5944583291
  C        -2.5550758656       13.0682263780       18.5188065770
  H        -1.5419259445       14.0507755212       16.8831082307
  H        -3.2317522515       14.3977401930       17.0870051386
  H        -3.5084383015       13.8647970980       14.3673640946
  H        -1.7158392084       13.7183114733       14.4779732194
  H        -2.6663724705       12.4150868337       13.8893428313
  C        -1.7442661724       13.8738879697       19.5001827456
  H        -2.0604032697       12.0658660517       18.4770005357
  H        -3.6682373544       13.1113649787       18.6280850336
  C        -2.1911106009       13.5871835729       20.9419129372
  H        -0.6725398976       13.7189903934       19.2868321078
  H        -2.0294053098       14.9691202759       19.2931473935
  C        -1.1982001615       12.7580204433       21.7695581249
  H        -3.1529372825       13.0932399446       20.8438822048
  H        -2.3135710745       14.5915323458       21.4038942108
  C        -0.1574205374       13.7377608971       22.4413996812
  H        -1.8543155524       12.3308528133       22.5360381653
  H        -0.8868659407       12.0766531670       20.9440085841
  C         1.1120374895       12.9603118421       23.0132257631
  H         0.1971415454       14.3053595587       21.5834277880
  H        -0.5643785684       14.4428714161       23.1936004882
  C         1.3427233169       11.6917041381       22.1922240923
  C         0.7332080850       12.2082636151       24.2325144410
  C         2.3745437667       13.8181055024       23.1764682963
  C         1.2339584887       10.6029810720       23.0246205257
  C         1.7821593484       11.3984655328       20.9064001771
  C         0.7874599071       10.8875393059       24.3057592298
  C         0.2005518124       12.7579091282       25.4448957604
  H         2.6303289946       14.2045181051       22.1798725276
  H         2.1585973277       14.7141049909       23.7568243347
  C         3.5881224279       13.1109877267       23.7620043139
  S         1.6103031778        9.1095124476       22.2243006692
  C         1.8928358026        9.9833353888       20.8021890957
  H         1.8164236267       12.1176604112       20.1538234331
  C         0.4125931907       10.1937873254       25.4238476269
  H         0.1808247842       13.8057133043       25.5695651001
  C        -0.1384932626       12.0795923457       26.6190147129
  H         3.7934004117       12.2360452647       23.0999082293
  H         3.4393537280       12.7708607758       24.7834384235
  C         4.8325305321       13.9847973388       23.7670533601
  C         2.2976119676        9.2381679762       19.5315521357
  C        -0.0245932268       10.7420787590       26.6765917894
  H         0.3733031949        9.1121606757       25.3503244909
  C        -0.4661562201       12.4489183105       27.8885904636
  H         5.6129804583       13.4350299222       24.3601154650
  H         4.7445975615       14.9469048536       24.2453823173
  C         5.3612124836       14.1853710823       22.2978827698
  C         2.1818479182        7.8195543168       19.3027026505
  C         2.8572423203       10.0575463591       18.4067394426
  C        -0.4681563597       10.0061641861       27.9351537464
  C        -0.6938581530       11.3424848648       28.7027523177
  S        -0.7085338186       13.9386804864       28.6520561637
  H         6.1177570396       14.9659939818       22.4525210114
  H         4.6768657114       14.6922824349       21.5396944738
  C         6.1440474270       13.0266256804       21.8016483718
  N         1.7313521647        6.8727865173       20.2754519341
  C         2.4452902213        7.2572476000       18.1176194328
  C         3.2214316050        9.4208284123       17.2442403973
  H         2.9399339947       11.1058226794       18.4244216476
  C         0.6052001234        9.0451494872       28.6495030973
  C        -1.8356545415        9.3001014397       27.8329333505
  C        -1.0804171850       11.7345419774       30.0002126879
  C        -1.1323145167       13.0954285304       30.1062674583
  H         6.9945203649       12.6566599438       22.4691066078
  H         5.5744004106       12.1220367404       21.8843662033
  C         6.5151706644       13.0793273549       20.2928674489
  S         1.8667749521        5.4121499055       19.6356488446
  N         2.2695577504        5.8329744900       18.0938317943
  C         2.8832953115        7.9842118146       17.0155604281
  H         3.5641794553        9.9647537879       16.3923657739
  H         0.8858172280        8.1960006489       28.0352246035
  H         0.0973788797        8.6603354753       29.5815886721
  C         1.9077422626        9.7206554619       28.9868179082
  H        -1.6673549304        8.2892160056       27.3492632582
  H        -2.2333615667        9.1288641579       28.8308232761
  C        -2.8776688221       10.1238007995       27.0192230528
  H        -1.3680288737       10.9709310895       30.6709578673
  C        -1.2636775430       13.8592979317       31.3819267803
  H         7.3000441026       12.4028158954       19.9522644213
  H         6.9479151543       14.0829924683       20.1368573240
  C         5.3297159617       13.0323302337       19.3224818896
  C         3.0796875156        7.2802827662       15.7761892880
  H         2.4326458671       10.1836070427       28.0723000790
  H         1.6450354499       10.5806768573       29.6075773349
  C         2.8343211326        8.7777548962       29.7168456406
  H        -2.5907280034       10.4958021891       26.0280842062
  H        -3.0841874918       11.0053037453       27.6485689682
  C        -4.0857065274        9.2436999796       26.8679755077
  C        -1.3850064287       15.2321175545       31.4915489501
  C        -1.3924927429       13.0982118479       32.6567615122
  H         4.5888147185       12.4182487041       19.7490998107
  H         4.8950576784       13.9531101696       19.2207459743
  C         5.8224187460       12.7022864562       17.9940548078
  H         2.9060430102        6.2414619999       15.9179947517
  C         3.5187583201        7.6667816942       14.5393708276
  H         3.4771762905        8.2432741615       29.0157127993
  H         2.2955521846        7.9406686350       30.1728059689
  C         3.8547864505        9.4610249126       30.6644151495
  H        -3.9790837445        8.6571596459       25.9876636465
  H        -4.1757316513        8.4154693712       27.5960282607
  C        -5.2300466495       10.1564175339       26.7533150020
  N        -1.1674874000       16.1234247281       30.4957177801
  C        -1.7722693070       15.7947478364       32.6552052020
  C        -1.6067736067       13.6265437007       33.8898542224
  H        -1.2010245061       12.0397027600       32.6847205442
  H         6.4886001103       11.8688452614       17.9961073929
  H         5.0029973761       12.5247919662       17.3399771635
  H         6.3659079628       13.5637278097       17.6819723239
  S         3.9283033725        9.2409198717       13.8973323368
  C         3.6000644482        6.5948654540       13.5601186160
  H         3.9816567426       10.4686932896       30.2217641839
  H         3.4100308801        9.6651491833       31.6827471990
  C         5.2121323599        8.7504010693       30.6896799787
  H        -5.0110263089       10.9232678922       26.0080725804
  H        -5.5283295910       10.6482489923       27.6870658145
  C        -6.4810963371        9.3060947477       26.2815817751
  S        -1.5220000514       17.6241045210       31.0030468081
  N        -2.0397554817       17.2138766533       32.4651048687
  C        -1.9534879732       15.1459209525       33.9018220325
  H        -1.5654746085       12.9624325063       34.6763168888
  C         4.1594759618        8.4088744444       12.3528479910
  N         4.0527504093        7.0773373600       12.3977721942
  O         3.2773091092        5.4425099194       13.7471443523
  H         5.9297328430        9.3645820147       31.1376717193
  H         5.6241059752        8.4758797924       29.6941393795
  C         5.2138242225        7.4984966801       31.6475229215
  H        -6.2032021506        8.4720733546       25.6393590670
  H        -6.8884000493        8.8923305541       27.2137790029
  C        -7.2854193262       10.2908319167       25.4031636066
  C        -2.2035354606       15.8910377164       35.0738172419
  S         4.4612720666        9.0656131765       10.8138628616
  C         3.9594680671        6.1920376842       11.2163356182
  H         5.0632538562        7.9293512764       32.6061953223
  H         4.3274489865        6.8254874689       31.4390483368
  C         6.4977155317        6.7264106602       31.6044241832
  H        -6.7879162301       10.4574013730       24.4491658812
  H        -7.3667009338       11.2724201262       25.9196026469
  C        -8.6544264204        9.7176711027       24.8938387347
  H        -2.2120254029       16.9797150979       34.9157126883
  C        -2.7320951452       15.5652087358       36.2657737264
  H         4.7223831019        6.3440602954       10.4997103619
  H         4.0941923428        5.1783624586       11.5531724073
  C         2.6111463792        6.2384614529       10.6599745291
  H         6.4493031043        5.7051035593       32.1398134547
  H         7.3246647051        7.2645031797       32.1622751155
  C         7.0308563922        6.4737203592       30.1455545888
  H        -9.0006270671       10.5076553038       24.2134309685
  H        -8.5242068204        8.7513711092       24.3336372670
  C        -9.6117940157        9.7079162430       25.9803092412
  S        -3.0583977872       13.9414415715       36.7970422999
  C        -3.0250148941       16.6275015995       37.2072213966
  H         1.9293618262        5.7313740073       11.3966498328
  H         2.0993032624        7.1692280214       10.4626760378
  H         2.6647606090        5.7159314435        9.7355637247
  H         6.0571476851        6.3549257053       29.6555483100
  H         7.5781285815        5.4896181627       30.1455805687
  H         7.6581191477        7.2148917671       29.5974872161
  H       -10.6066321928        9.5004358439       25.4946376765
  H        -9.7427676043       10.6667084265       26.4027642738
  H        -9.3015155389        9.1382561113       26.8336188357
  C        -3.6330781197       14.6972940115       38.2775206660
  N        -3.6212965276       16.0947425535       38.2567625391
  O        -2.9373453144       17.8493312275       36.9422075434
  S        -4.1419576201       13.8618862084       39.7234747068
  C        -4.0449303422       16.8453459227       39.3902968163
  H        -4.1569317829       17.8760276110       39.1470689658
  H        -5.0372495318       16.4724216681       39.6783873560
  C        -3.0810708750       16.8518075546       40.5711819658
  H        -2.0515831631       16.5434100214       40.3343273080
  H        -3.0211448147       17.8244908677       41.1457897084
  H        -3.4011384426       16.0471568847       41.2332116419
