352
 i =    46600, time =    46600.000, E =        24.7236658321
  H        12.3289862485        6.4443009917       33.1006616154
  C        11.7556603267        5.8566881429       32.4061724939
  H        12.5094413558        5.0420795414       32.1235970100
  C        11.1627940853        6.7168891935       31.2591787305
  C        10.6643468315        5.1894250570       33.1958014530
  C        11.5435965854        6.1153311218       29.9231438266
  H        10.0672913073        6.6647962469       31.3292836858
  H        11.4340608647        7.7520901000       31.3429126017
  H        10.2623055596        4.4433367643       32.6410796628
  H        11.0808043780        4.7458527582       34.1553879755
  H         9.8682213943        5.8338580041       33.4669537898
  C        10.4074363810        6.1904487118       29.0208899443
  H        11.9228264118        5.1070558689       30.0730128484
  H        12.3033588370        6.6573705422       29.4216610270
  C        10.8327583213        5.7551771168       27.5911369696
  H         9.6398516104        5.5719673296       29.3971525892
  H         9.9600943983        7.2035857748       29.0023316241
  C         9.5684422856        5.0275271529       26.9639192964
  H        11.6714440501        4.9563762295       27.5040865642
  H        11.2349624818        6.5184658386       26.9601863918
  C         8.5892589783        6.1240225999       26.5004550191
  H         9.9085288030        4.4490579006       26.1387911636
  H         9.2960578662        4.3320807519       27.7024932763
  C         7.4246809200        5.4275289090       25.7021915069
  H         8.2338948848        6.7015546204       27.2716308160
  H         9.0851926005        6.8203674097       25.9168243960
  C         7.0544174784        4.1276372191       26.3740243713
  C         7.8690464772        4.7257320101       24.4785947570
  C         6.1440675657        6.2849757985       25.5335269946
  C         7.3872972561        3.0342598317       25.6304239658
  C         6.5098791976        3.7821089651       27.6351546205
  C         7.8935690791        3.3830560439       24.3869302246
  C         8.3420283793        5.3943813560       23.3056667197
  H         6.4068737070        6.9008013897       24.7053833514
  H         6.0705101669        7.0078227926       26.4367385882
  C         4.9187829966        5.4805211431       25.2287015173
  S         7.0859657427        1.5487086077       26.3931288592
  C         6.3470566615        2.4193860582       27.7078420642
  H         6.2064409472        4.5630236045       28.2728758159
  C         8.3799496364        2.7416786036       23.3056007362
  H         8.5799147920        6.4496621517       23.3439354857
  C         8.6585733109        4.6871876006       22.1928807732
  H         5.1056256328        4.9743079246       24.2793337782
  H         4.6497622977        4.7782932420       25.9435547070
  C         3.7054987889        6.3884773279       24.9551462302
  C         5.8480068299        1.7303942253       28.9137552517
  C         8.6782487056        3.3338873876       22.1344176762
  H         8.4053652667        1.6632619573       23.3439297367
  C         8.9697664364        5.0701144481       20.8893323359
  H         3.1527591075        6.0152572457       24.1766031433
  H         4.1071282316        7.3510603128       24.5720093078
  C         2.8037413171        6.6475723026       26.2298469097
  C         5.7153309668        0.3400864550       29.1107599571
  C         5.4206481972        2.6597047646       30.0048194774
  C         9.0756855234        2.5830121088       20.8373896966
  C         9.2209006834        3.9690538655       20.1217969090
  S         9.3143511774        6.5792962898       20.0084495519
  H         1.9576276319        7.2542664676       25.9107909447
  H         3.3733782332        7.1833999396       27.0162093692
  C         2.0845880970        5.3440759163       26.6798197776
  N         5.8666220695       -0.6579757820       28.1313605778
  C         5.4778643674       -0.1447160878       30.3951938530
  C         5.0819626444        2.1563127117       31.2206069172
  H         5.2388055420        3.7287967974       29.9149923654
  C         7.9406494613        1.5774788497       20.3366822100
  C        10.3768230277        1.8913878758       21.0552328287
  C         9.5575555712        4.3188183648       18.7803450684
  C         9.4853689301        5.6750842307       18.5391184990
  H         1.5143352303        4.7218446507       25.8970304626
  H         2.9328287656        4.6601004321       26.9415183336
  C         1.1853383833        5.4525248063       27.8583622546
  S         5.8191375670       -2.0172500602       28.9015613013
  N         5.5512858897       -1.5358538571       30.4414581721
  C         5.1693352666        0.7126118556       31.5016548161
  H         4.9815692939        2.7930613419       32.0365469474
  H         7.6048630807        1.0482201940       21.2458048691
  H         8.3122048945        0.8041960462       19.6040380144
  C         6.8880884250        2.3508389372       19.5253602137
  H        10.1573374748        0.8666392890       21.2574378530
  H        10.7949358495        2.3141446899       21.9274538802
  C        11.3691099250        1.9148165507       19.8886008200
  H         9.6252426815        3.4694354867       18.1217706124
  C         9.8549557621        6.3355469944       17.2456224725
  H         0.6413838302        4.5439621332       27.8935428100
  H         0.5555514797        6.2886402617       27.7041690258
  C         2.1457428532        5.5897729473       29.0638649957
  C         4.9216943120        0.0740757431       32.7569835819
  H         7.3502324323        2.9520891597       18.7073103077
  H         6.4893290313        2.9747253261       20.2769785909
  C         5.8476652237        1.3666673999       18.7630551393
  H        11.5851569306        2.9267968662       19.6350019752
  H        10.8347703458        1.6138235984       18.9867876058
  C        12.5929758297        1.1656200458       20.2289039471
  C         9.9437207195        7.7369072345       17.0568356165
  C        10.0829859356        5.5357152968       15.9900146205
  H         2.6494824730        4.6155547155       29.2894341057
  H         2.8334456565        6.4157784011       28.8391547388
  C         1.4177934284        6.0201449478       30.3596009780
  H         4.8092428860       -0.9732553631       32.7085592063
  C         4.7377512633        0.5008371967       34.0788492693
  H         5.3175082956        0.7822674603       19.5359814881
  H         6.3196170495        0.6379833798       18.1422865681
  C         4.7241119908        2.1684194278       18.1084857732
  H        12.4432172158        0.5949548356       21.1219698462
  H        12.8304688963        0.4816808536       19.4473944141
  C        13.8405125348        2.0180494413       20.4589486786
  N         9.6811130032        8.7085951220       18.0640072149
  C        10.1900105694        8.3168209326       15.8512853946
  C        10.4534322827        6.1063027505       14.7985057162
  H         9.8391277700        4.4988511440       16.1239916135
  H         1.1024634708        5.0693552554       30.8942651227
  H         2.1903436192        6.5290291252       30.9462169151
  H         0.5301050290        6.6563722463       30.1879947799
  S         4.3939630780        2.1410373677       34.5111622072
  C         4.7647966787       -0.5092810945       35.1654877399
  H         4.4422461793        3.0602867510       18.8029657978
  H         5.0104586422        2.6205728361       17.1481745485
  C         3.3418239859        1.4559604190       18.0448408734
  H        13.9442254581        2.8984652079       19.8570106735
  H        14.7452585532        1.4470360946       20.2946582488
  C        13.9567788286        2.6944717615       21.8361178159
  S         9.6394981130       10.1749791982       17.2951780773
  N        10.1496547524        9.6729319339       15.8142412418
  C        10.5895586848        7.6176694174       14.6963993077
  H        10.5023709120        5.5085615597       13.9267942945
  C         4.2287913378        1.4708542666       36.2186407401
  N         4.3728842425        0.1056709202       36.2925702555
  O         4.9208093109       -1.6950153451       34.9615881778
  H         2.5876920010        2.1306056047       17.6790210048
  H         3.0239497974        1.2427513112       19.0167252874
  C         3.5937464486        0.1575605143       17.2343373800
  H        14.5314078437        3.5849532206       21.7467019001
  H        13.0924738149        3.2214195929       22.1303318698
  C        14.3737262834        1.8620217851       23.0837939086
  C        10.8540260139        8.2869417226       13.4445621974
  S         3.7081929236        2.3277270650       37.6804041428
  C         4.2686651449       -0.6605231566       37.5637721270
  H         4.0882011356        0.4861278244       16.2858322480
  H         4.3806784938       -0.5118635939       17.7197375847
  C         2.2644137095       -0.5441425364       16.9654410623
  H        14.1353876353        0.8168035783       22.9350090284
  H        13.7372901544        2.1668853080       23.8581304854
  C        15.8064727321        2.1763991862       23.3682689591
  H        10.5112222102        9.2919154351       13.3867923443
  C        11.4383030333        7.9339744124       12.2841466204
  H         3.4143601917       -0.3457615345       38.1808786384
  H         4.2862357656       -1.7277301438       37.3932757678
  C         5.5351488527       -0.4343321100       38.3848873623
  H         2.3292355049       -1.2017589697       16.1003888907
  H         1.4241834760        0.1178661015       16.7357556753
  C         1.7330223490       -1.3348013037       18.2537767497
  H        15.8795487013        3.2654029651       23.3317743043
  H        16.0417673859        1.7196170464       24.3102493031
  C        16.7865012435        1.6022837323       22.2873490822
  S        12.1749361501        6.4635489461       11.9628085939
  C        11.3199936721        8.9485995716       11.2123048744
  H         5.3611078871       -0.1284268006       39.3598644772
  H         6.0652724423       -1.4345846265       38.5691782318
  H         6.2718003019        0.1802530680       37.8794722166
  H         1.2659159455       -0.5763586570       18.9572111086
  H         2.4418630971       -1.8595988568       18.7631036465
  H         0.9158008976       -2.0416171967       18.0244084322
  H        16.4177535805        0.8257450030       21.6148672020
  H        17.6721446577        1.0627840466       22.7688204436
  H        17.2116750488        2.4175159472       21.6793124485
  C        12.4503612157        7.1480375550       10.3430476537
  N        12.0707673990        8.4669709217       10.2136609267
  O        10.7710071673       10.0323499481       11.3183512230
  S        13.1351988343        6.2194792461        8.9784446870
  C        12.1559793622        9.2163127495        8.9870665579
  H        11.9475717159       10.2806714980        9.0717380111
  H        13.1120983873        9.2360059937        8.5289377357
  C        11.1146951698        8.7431983971        7.9591931511
  H        10.3419531653        8.2714012660        8.5567964468
  H        10.7441002865        9.5226762330        7.2474264866
  H        11.3870986151        7.9348338397        7.3734555712
  H        -1.2962775443       13.0922536124       17.3648087386
  C        -1.8088162309       13.9103534624       16.7634125128
  H        -0.9909883219       14.4876056245       16.4577016890
  C        -2.5639335325       14.8215909787       17.7913889851
  C        -2.7331747774       13.3345417758       15.6267688456
  C        -3.0751105331       14.0115160962       18.9748236454
  H        -1.9346930205       15.6108361927       18.1607040514
  H        -3.3712077470       15.4390793446       17.4008431870
  H        -3.5782361251       13.9540824828       15.5124325216
  H        -2.2163473097       13.2995428150       14.6513347304
  H        -3.0528773033       12.4046712552       16.0690214399
  C        -1.9567064023       13.5678410708       19.8632290648
  H        -3.5510389783       13.1509598733       18.6074731805
  H        -3.7582944853       14.5718279613       19.5764321429
  C        -2.3718945295       13.4732616806       21.3281444918
  H        -1.5528362552       12.5939126576       19.5033455611
  H        -1.1651509557       14.2802405537       19.8788466512
  C        -1.3321153688       12.7224058945       22.1358679317
  H        -3.3646677945       13.0967129125       21.4238171604
  H        -2.6288044813       14.5048683188       21.7679547434
  C        -0.0712005160       13.6375794015       22.3814082886
  H        -1.7638598260       12.4886390123       23.1023384273
  H        -1.1569796781       11.7738959457       21.5691243007
  C         1.0846448400       12.9185019635       23.1892471962
  H         0.2816435984       14.0075867189       21.4396274388
  H        -0.3752362624       14.5633911952       22.8607236380
  C         1.4016263776       11.5622568909       22.5498468228
  C         0.6789974840       12.1655783435       24.4208273523
  C         2.3617440859       13.8552899787       23.2301585747
  C         1.1774185206       10.4422528185       23.2921472241
  C         1.7979030296       11.2524209102       21.2267108920
  C         0.7156578122       10.8187498180       24.5410965061
  C         0.2907236212       12.8821979923       25.5285390538
  H         2.5544032308       14.2814840655       22.1981417375
  H         2.1509599905       14.7324243693       23.8482472940
  C         3.6111824627       13.2246643573       23.8609888399
  S         1.5738841091        8.9570416943       22.5166551229
  C         1.9320581174        9.8981138572       21.0890308165
  H         1.9442856459       12.0049726803       20.3962434612
  C         0.3319974440       10.2943023530       25.7223793189
  H         0.1935003777       13.9721096479       25.4634817027
  C        -0.1379440797       12.2835000258       26.6802337880
  H         3.8238446698       12.3986789878       23.2123241248
  H         3.3959627445       12.8501677456       24.8079660360
  C         4.7853375867       14.2505281843       24.0142414372
  C         2.3581607972        9.2600884178       19.8299096610
  C        -0.1643997848       10.9735700243       26.8341786854
  H         0.3648782955        9.2111242189       25.5878271565
  C        -0.5398239971       12.6765313531       27.8951156669
  H         5.6290646271       13.7590027232       24.4188925626
  H         4.6029165015       15.0936490719       24.7093641703
  C         5.3964841595       14.8526485767       22.7083653129
  C         2.4998222991        7.8171957205       19.5688974870
  C         2.5927308436       10.1154836199       18.6725455811
  C        -0.5468901381       10.2752625266       28.0740940037
  C        -0.7068070832       11.6280769276       28.7694782943
  S        -0.7988699887       14.1812634181       28.6476936082
  H         5.9340962756       15.7491367878       22.9829442566
  H         4.6187884350       15.2289562236       22.0518999852
  C         6.2630137942       13.7571221831       22.0770545845
  N         2.2779621471        6.7848026920       20.5703383756
  C         2.7183662507        7.2521411318       18.3598347984
  C         2.8932547730        9.5479683993       17.4320750933
  H         2.5548458394       11.1883916639       18.7034709168
  C         0.5791232507        9.3615556471       28.6224848390
  C        -1.9199196928        9.6286060622       27.9967203052
  C        -0.9695079320       12.0231453935       30.0603907934
  C        -1.1162541915       13.3851181743       30.1802504496
  H         7.1393332655       13.4788116048       22.6986559965
  H         5.7718541690       12.8240788681       21.9675091812
  C         6.8109952637       14.1021170883       20.7186141432
  S         2.3483479606        5.2849938932       19.9036441327
  N         2.6958819118        5.8435788921       18.3660390379
  C         2.9812599858        8.0823687277       17.2726488487
  H         3.1080622987       10.2693212049       16.6951639403
  H         0.9784960275        8.5359873490       27.8869994571
  H         0.3287184919        8.8167298974       29.5572339121
  C         1.7559780713       10.2249951258       28.9319940941
  H        -1.8907734190        8.6921230294       27.4630431498
  H        -2.1155520825        9.4937307354       29.0549010783
  C        -3.1394657380       10.4266078540       27.3827275404
  H        -1.0730728919       11.2434886176       30.7893889567
  C        -1.4873080229       14.1409795877       31.4047442291
  H         7.8890293744       14.2993791373       20.7958161909
  H         6.4883153937       15.1322511262       20.4808123162
  C         6.5386521609       13.1022724527       19.5735816164
  C         3.1732296023        7.4294927638       16.0315082827
  H         2.3206948117       10.3097323099       28.0078523073
  H         1.6073953813       11.2639687928       29.2838032872
  C         2.7314823260        9.5818533023       29.9560303348
  H        -2.7862462856       10.6744705423       26.3917612727
  H        -3.1930620595       11.3332377612       27.9882511371
  C        -4.4611112226        9.6822796482       27.3067411089
  C        -1.5924476544       15.5950895323       31.4241297070
  C        -1.8662412830       13.4360057257       32.6560822834
  H         6.7280348442       13.7243985535       18.6799972032
  H         7.1449581618       12.2483645190       19.7133441823
  C         5.0480934667       12.7160777660       19.5437575326
  H         3.2008002942        6.3367124215       16.0744576684
  C         3.5295507346        7.8731745064       14.7939617729
  H         2.9298706066        8.5006374450       29.8917200784
  H         2.2128045199        9.5924082198       30.9823248521
  C         4.0016890615       10.3214333653       30.0544313838
  H        -4.3438715567        8.7806267064       26.7673000206
  H        -4.7261189837        9.3455791024       28.3009793770
  C        -5.5132339471       10.6839621767       26.7824564982
  N        -1.3633966328       16.5786383718       30.3717180104
  C        -1.9637093922       16.2353857313       32.6140192313
  C        -2.0655741125       14.0845579411       33.8562656507
  H        -1.9870686287       12.3518769266       32.6539897629
  H         4.6633141416       11.8631088673       20.1741778349
  H         4.4340841993       13.6149420669       19.7326871348
  H         4.7940191476       12.4533002219       18.5194929630
  S         3.8042045931        9.5425621659       14.2665529941
  C         3.5952959860        6.8758391001       13.6792875680
  H         4.5828482538       10.4654758002       29.1563521292
  H         3.8924606504       11.3329548607       30.4092506340
  C         4.9641591861        9.6524903484       30.9461294515
  H        -5.0829381004       11.5656446542       26.3259702477
  H        -6.1306061563       10.9368029433       27.6530379376
  C        -6.4879165359        9.9415556509       25.7476610418
  S        -1.5758493771       18.0986910216       30.9452215508
  N        -2.0236802725       17.6064473824       32.4450802949
  C        -2.1367206925       15.5557608443       33.8516316675
  H        -2.0515352405       13.4738539429       34.7679913067
  C         3.9591401089        8.8704940157       12.6538904315
  N         3.9184985841        7.4974283384       12.5751813833
  O         3.4293212511        5.6471088214       13.8934438082
  H         4.4088066779        9.1001459463       31.7097630870
  H         5.6476794737       10.3149093505       31.4968850816
  C         5.8434964949        8.6999492599       30.1047602816
  H        -6.0530666850        9.8507821318       24.7521239794
  H        -6.6554067520        8.8931700285       25.9347535642
  C        -7.9372675198       10.5152951469       25.7777486836
  C        -2.3608651236       16.4052263169       34.9760820340
  S         4.2188696231        9.8312690454       11.2195411227
  C         3.9168365977        6.8127502922       11.2482372205
  H         5.3649022229        8.2794626033       29.2062619242
  H         6.6441767625        9.3219103802       29.7091316975
  C         6.4661947092        7.5524347107       30.9789001573
  H        -7.8662827391       11.4543398959       25.2682435383
  H        -8.3463966059       10.8623744014       26.7636685332
  C        -8.9656824284        9.7293588147       24.9513649720
  H        -2.2140151210       17.4621220938       34.8135661518
  C        -2.9028845960       16.1171744367       36.2111953206
  H         4.6767520781        7.2490798250       10.6513186048
  H         4.2734488968        5.8105562471       11.3274869243
  C         2.5342790582        6.8843301600       10.5897929912
  H         6.8980073315        7.9100066867       31.8535102134
  H         7.3493215668        7.2639248871       30.3858021992
  C         5.5408424398        6.3450804129       31.1963163332
  H        -9.3610678924       10.3590241763       24.1939799997
  H        -8.4906827535        9.0331778371       24.3499661915
  C       -10.0408877665        9.0975750521       25.8633479230
  S        -3.2360840385       14.5617507800       36.8415521550
  C        -3.1243116737       17.2966643098       37.0180366804
  H         2.6202873558        7.3640883364        9.6461944145
  H         2.0599075351        5.9111071161       10.5210427184
  H         1.9050079791        7.5439529990       11.1759921530
  H         5.1229527287        6.1331874250       30.2115197770
  H         4.7443669845        6.5364064247       31.9060487928
  H         6.1998761866        5.4410605020       31.5022452512
  H       -10.6377463461        8.4003788226       25.3538804158
  H       -10.6997386172        9.8538622654       26.2312715048
  H        -9.6521062401        8.6324396406       26.7696201420
  C        -3.6736263707       15.4200627018       38.2972717289
  N        -3.6817749111       16.8090485731       38.1756248060
  O        -3.1163958329       18.4292949393       36.6886933368
  S        -4.3215623422       14.7257331133       39.7779161599
  C        -3.9945164229       17.6772238762       39.3342723267
  H        -4.3714352382       18.6539944695       38.9782125643
  H        -4.8123629854       17.1589800321       39.8820253730
  C        -2.8420481086       17.8389553599       40.2801440544
  H        -3.0987737027       18.5414242218       41.0559530432
  H        -2.5698926650       16.9211560400       40.8357628592
  H        -2.0351137834       18.3184015142       39.7388887295
