352
 i =    94600, time =    94600.000, E =        25.2008354304
  H        11.0698245193        4.9139152563       31.7367740450
  C        11.0821998503        6.0163270906       31.7994064543
  H        10.1756606986        6.3746609199       31.3047217474
  C        12.1742703935        6.6374225980       30.9580321599
  C        11.3137288859        6.2325849732       33.2919965379
  C        12.1322625323        6.1341501093       29.4988269496
  H        11.9658605679        7.6662779325       31.0344247688
  H        13.1431449053        6.6105122335       31.3872870410
  H        11.3427267704        7.2616070663       33.5686771691
  H        10.5845442216        5.8745379755       33.9699608405
  H        12.3088201975        5.9491259250       33.6628799891
  C        10.7698689881        6.1358244194       28.8591977005
  H        12.5508954473        5.0892429865       29.4474709117
  H        12.8613054088        6.6311603782       28.9092420853
  C        10.7919446360        6.1165807321       27.3409314257
  H        10.3518010943        5.1940623155       29.0666250936
  H        10.1340703882        6.9724925158       29.2040870399
  C         9.7086773008        5.2802921660       26.5814398648
  H        11.7414812057        5.6002802200       27.2147245358
  H        10.8578756734        7.1179721344       26.8705027076
  C         8.5028653163        6.1065126936       26.0308145830
  H        10.1176226676        4.7998603475       25.7281703774
  H         9.3514490928        4.4605673188       27.2505385352
  C         7.5633748093        5.1838986946       25.2558243296
  H         7.9340050605        6.4827858370       26.8628236798
  H         8.7148608851        6.9838600830       25.4004993480
  C         7.2559815926        3.8753221645       25.9726719677
  C         8.0547818276        4.4852567865       24.0825185609
  C         6.3237991064        5.9906428531       24.8694114455
  C         7.5453212892        2.7736286705       25.1887779131
  C         6.8058876651        3.4521634000       27.2259775701
  C         8.0511266106        3.1544616479       23.9897717412
  C         8.6049072415        5.1351266342       22.9924034817
  H         5.7413039159        5.4461491785       24.1563521600
  H         6.7428313260        6.8678913839       24.3529289334
  C         5.4213386341        6.4578229672       26.0135856386
  S         7.2762864222        1.2186164741       25.9313396009
  C         6.8002654724        2.0753006295       27.3410641001
  H         6.6510916757        4.2324725823       27.9754700170
  C         8.5244987430        2.5640084168       22.8735058122
  H         8.5388760669        6.2044646465       23.0618199006
  C         9.1015209716        4.5977936895       21.8837833343
  H         5.4764098908        5.7808610727       26.7627645868
  H         5.7815221432        7.3737070158       26.3385756886
  C         3.9698028390        6.5875123856       25.5570174972
  C         6.3022879881        1.4479845580       28.6306840989
  C         9.0868750653        3.2885673064       21.7970119353
  H         8.3612028475        1.5383979595       22.7392088114
  C         9.5698908173        5.0323158668       20.6724888882
  H         3.6705968527        5.7732132413       24.8698847727
  H         3.8193771049        7.4678415104       24.9962948725
  C         2.9868192064        6.4960723032       26.7777289099
  C         6.2139497964        0.1098727309       28.9201115492
  C         5.8542311128        2.3846494033       29.6988512274
  C         9.5445917841        2.5702773552       20.5986921647
  C         9.8174734914        3.9556935015       19.8947817430
  S         9.7327361346        6.5568049416       19.9673050368
  H         2.0044010997        6.8681347103       26.5021027506
  H         3.4289439196        7.0557982058       27.6053995027
  C         2.8605014694        5.0156399915       27.2771654979
  N         6.6038841468       -0.8676914321       28.0585728601
  C         5.8544900808       -0.3047609223       30.1993576946
  C         5.5705768340        1.9427368483       30.9423407804
  H         5.8171938846        3.4607007615       29.5696341046
  C         8.3849367266        1.7452349898       19.9317999380
  C        10.8278102593        1.7308946928       20.9534248061
  C        10.2392605458        4.3858183985       18.6454706869
  C        10.1845514700        5.7775977753       18.4944182465
  H         2.5939318938        4.4436314440       26.4249639457
  H         3.8019719300        4.6720316326       27.6502214805
  C         1.8108697645        4.8603453940       28.4173977626
  S         6.3945897514       -2.3102081327       28.7990075371
  N         5.7855389518       -1.7123244419       30.1762061987
  C         5.7128101776        0.5151829618       31.3248405184
  H         5.3843716669        2.7305026215       31.7310349024
  H         8.1770481092        0.9351052830       20.5988732006
  H         8.8853145531        1.1644225123       19.0677217402
  C         7.1793025135        2.5771191351       19.4444742742
  H        11.1685597470        1.1046918336       20.0690145450
  H        10.4187636040        1.1020237081       21.7403957589
  C        11.9970233690        2.7070408802       21.3443128397
  H        10.2636448392        3.6797593160       17.8018035782
  C        10.3192413477        6.5466924533       17.2360127752
  H         1.2783677043        3.9278142078       28.4002042323
  H         1.0178956376        5.5937603880       28.3293957101
  C         2.5139581862        5.0151743899       29.7400311573
  C         5.4321264855       -0.1727429300       32.5701360024
  H         7.4881785221        3.1354325314       18.5649313115
  H         6.8082218207        3.1483396522       20.3091656238
  C         6.0341862315        1.6407519236       19.0102145319
  H        11.6722320694        3.3526114620       22.1301240896
  H        12.3836365483        3.3893508631       20.5577246745
  C        13.1682629125        1.8616550691       21.7054554748
  C        10.3581132780        7.9627813683       17.2274143690
  C        10.4601844821        5.8611197218       15.9411991016
  H         3.2455456031        4.2633715482       30.0780322759
  H         3.0440296745        5.9702454902       29.7240844498
  C         1.6156694969        5.2541514744       30.9447449395
  H         5.4976926222       -1.2773947480       32.5320105025
  C         5.1524886433        0.3382124012       33.8142787075
  H         5.7028196379        0.9896841003       19.7929213974
  H         6.3209039067        1.0391858821       18.1231781054
  C         4.8372902357        2.4322979866       18.5484651866
  H        12.8233309098        0.9931808679       22.3947790691
  H        13.6236786555        1.3871384936       20.8182970180
  C        14.2072164864        2.7146296870       22.4493880251
  N        10.3226882666        8.8593285476       18.2959999468
  C        10.4393884285        8.6386802561       16.0260583552
  C        10.7835780572        6.5962134708       14.8130028079
  H        10.4218481153        4.7293280160       15.8448294922
  H         2.0816820644        5.7817108306       31.7476294028
  H         0.8153402632        5.8637267853       30.6880244103
  H         1.4108814378        4.3212810545       31.4908914691
  S         4.9176676258        2.0521947218       34.3339072524
  C         5.0840303411       -0.7305758489       34.8633906279
  H         4.6533763127        3.2903832106       19.2027744803
  H         4.9774093750        2.8724953541       17.5113811860
  C         3.4683363371        1.6951753437       18.5292312436
  H        13.8241645714        3.1291966615       23.3479556801
  H        14.3590058180        3.6201481372       21.8077393420
  C        15.4952884714        1.9672802746       22.6792532921
  S        10.1278529401       10.3885713874       17.7409779244
  N        10.3888932913       10.0647630729       16.1825849847
  C        10.7721141514        8.1007252089       14.8081519175
  H        10.9402047310        6.0120143155       13.8291363160
  C         4.5933520772        1.2430830260       35.9121690700
  N         4.6147244233       -0.1230841425       35.9614175999
  O         5.3644529440       -1.9402231824       34.7454432989
  H         2.6707724041        2.3648927211       18.2221429050
  H         3.1487358072        1.5785975473       19.5982323060
  C         3.4900871149        0.3765704390       17.7826998526
  H        15.3527071059        0.8929397044       22.6339852741
  H        16.0607783251        2.2336913390       21.7465786510
  C        16.3671216539        2.4651727411       23.8555790652
  C        11.0438025269        8.9291264858       13.6623778300
  S         3.9124465569        2.1349765404       37.2394203010
  C         4.4764059989       -0.7182350160       37.2603580729
  H         4.1936447105        0.4938760267       17.0422495313
  H         3.8220581901       -0.5029128104       18.3146087736
  C         2.0788440793        0.1246535979       17.2635545708
  H        15.8298430239        2.5957664666       24.8050610201
  H        16.6416202422        3.4498204532       23.6298014452
  C        17.6478833103        1.6076932258       24.1301806797
  H        10.7312506599       10.0038320611       13.7507824005
  C        11.5273304050        8.6369197283       12.3640686042
  H         3.8411183485       -0.2456120938       37.9709461988
  H         3.9927687052       -1.7023769149       37.0123169468
  C         5.8492571987       -0.8461224649       37.9432854979
  H         1.9300409041        0.9738559172       16.5815432235
  H         1.3527130083        0.1867705674       18.1697692639
  C         1.7422093137       -1.1839806435       16.6107803364
  H        18.1464181384        1.8870075709       25.0688494805
  H        17.4221319085        0.5767636105       24.2598856004
  C        18.7104244711        1.8135604261       22.9705852015
  S        12.1608288644        7.1384392390       11.8853479248
  C        11.5366868123        9.7123578197       11.3220708416
  H         6.6922877871       -0.3612893088       37.5413074859
  H         5.7698253114       -0.5034257699       39.0040741933
  H         6.1675755860       -1.9196314766       38.2300677578
  H         1.6383340512       -1.9110179484       17.4198066550
  H         2.5727723925       -1.5314022405       15.9787844597
  H         0.7996924177       -1.0593126722       15.9885942224
  H        19.6726411353        1.4900398311       23.4080446092
  H        18.8103700638        2.8334865520       22.6744466753
  H        18.4636245080        1.1778479383       22.1271671386
  C        12.6014501037        7.9598024626       10.4039783784
  N        12.1741910659        9.2524144787       10.2820165665
  O        11.0951397511       10.8657816826       11.4050104976
  S        13.1593749310        7.1250350939        8.9067080926
  C        12.3681834317       10.1185904895        9.0770826610
  H        12.5015496553       11.1956150814        9.3475441720
  H        13.1253529784        9.8455740944        8.3683926642
  C        11.1326228616       10.0217810914        8.2571917063
  H        11.1563522542       10.5103664637        7.2947388465
  H        11.0304899347        8.9505434213        8.0035569910
  H        10.3688469372       10.4364443154        8.8650968384
  H        -3.1226908296       13.2099758046       16.3368193418
  C        -2.1570907246       13.7809293978       16.3534579154
  H        -1.3763505365       13.1212881262       16.3845127220
  C        -2.0723083004       14.7881425184       17.5547955428
  C        -2.0079922425       14.5154050912       15.0242334557
  C        -2.3800125109       14.2740490378       18.9994287451
  H        -1.0258241693       15.0282189640       17.5933982514
  H        -2.5480204346       15.6955218485       17.3702145984
  H        -2.7496632853       14.3615771035       14.2604435369
  H        -1.9098616894       15.5444466079       15.0628952918
  H        -1.0425751758       14.1970893322       14.5443188353
  C        -1.2099063099       13.9089088610       19.9156450226
  H        -2.8985742977       13.2832642761       18.8894085723
  H        -3.0936342146       14.9509469154       19.3812829627
  C        -1.6067067487       13.7911762285       21.3688662368
  H        -0.6964841162       12.9572615451       19.5662090546
  H        -0.5125675390       14.6660374473       19.9114632672
  C        -0.6663578450       12.8545741343       22.1323880442
  H        -2.5979745925       13.3729031470       21.3514389728
  H        -1.8469342595       14.7580307249       21.8105896380
  C         0.6195068131       13.6572282417       22.7080829407
  H        -1.3301876719       12.5596012833       22.9929808098
  H        -0.4866465042       11.8474810592       21.6356722319
  C         1.6215491737       12.9110806310       23.6118047612
  H         1.2025912690       14.1622318349       21.9099403863
  H         0.3187855983       14.5284195340       23.2844036753
  C         1.9853953002       11.6013238068       22.8596925311
  C         1.1507780586       12.1154765806       24.7509520316
  C         2.8445839095       13.7954801449       23.9611630912
  C         1.8700848903       10.4568999185       23.6352636866
  C         2.5644802616       11.2667325056       21.6353548362
  C         1.3268512569       10.7570034281       24.8685343124
  C         0.4795411235       12.7006110115       25.8242432105
  H         2.3821905319       14.7162932000       24.1864195174
  H         3.2456085236       13.4724399881       24.9512999894
  C         3.9332145578       14.0499280258       22.9273038841
  S         2.2391901017        9.0604462809       22.7961414029
  C         2.5686773031        9.9246028624       21.3685467622
  H         2.9239284365       12.0647792825       21.0089366968
  C         0.8953079237       10.0945810045       25.9482892710
  H         0.3511346783       13.8190505168       25.7739469112
  C         0.1577202020       12.0544200832       26.9792529630
  H         3.5358462492       14.6462139898       22.1449816349
  H         4.2813787393       13.1689864930       22.4273190748
  C         5.2805165920       14.5768120335       23.5820247503
  C         2.9673078737        9.2903029936       20.0642639575
  C         0.3093285607       10.7005625960       27.0699887729
  H         1.1886964292        9.0906696732       26.0382269612
  C        -0.2914580493       12.3567596469       28.2394177462
  H         5.5802556929       13.9698989966       24.4432063652
  H         5.1621181486       15.5573076332       24.0422527624
  C         6.2987245220       14.8329791910       22.4694195673
  C         2.9015726697        7.9056178028       19.7309623991
  C         3.3005332050       10.2220416068       18.9833569617
  C        -0.1105271579        9.9390419818       28.2899448877
  C        -0.4030411296       11.2546007564       29.0170851545
  S        -0.6830283843       13.8756229773       28.9481121638
  H         7.1231901415       15.4490145619       22.8360923025
  H         6.0118715040       15.3693628620       21.6022599106
  C         7.0703780248       13.6227789817       21.9525936564
  N         2.6182548117        6.8697877715       20.6366272850
  C         3.2034807200        7.4088673096       18.4408499512
  C         3.6407130733        9.7250822147       17.6883206796
  H         3.3542749130       11.2720508366       19.0929223330
  C         0.9945204224        9.1730016157       29.0243426050
  C        -1.4558415572        9.1134629454       28.1490275424
  C        -0.8025277706       11.6626410251       30.3209755960
  C        -0.9142634089       13.0094042549       30.4707649657
  H         8.0794552079       14.0151415833       21.9122946709
  H         6.8701185678       12.8213012688       22.6679444251
  C         6.5888453673       13.2793758024       20.5008931285
  S         2.7812638281        5.4515413400       19.8564961719
  N         3.2073256966        6.0424929957       18.3907732854
  C         3.6365493319        8.2647239299       17.3606460442
  H         3.9197038487       10.4685792653       16.9276462010
  H         1.3214140545        8.3537911588       28.4050935011
  H         0.6122464681        8.7330256356       29.9383067538
  C         2.2528036525       10.0052957463       29.2980076044
  H        -1.2622506130        8.3405321165       27.4524101010
  H        -1.5659740574        8.6561955804       29.1336815945
  C        -2.7526297214        9.8699471573       27.8892285516
  H        -0.9095327216       10.9457570108       31.0647633663
  C        -1.2300722038       13.7193758081       31.7490945614
  H         6.0249054152       14.0865637508       20.0426603508
  H         6.0675037339       12.3120429929       20.4449241679
  C         7.8680730084       13.2219417319       19.6097470577
  C         3.7882446321        7.6513144633       16.0760426982
  H         2.6219074648       10.2133002364       28.3211150560
  H         2.1038551545       10.9222003019       29.8667666551
  C         3.3290939000        9.2665426947       30.0054533230
  H        -2.5975305896       10.5399637593       27.0201993139
  H        -2.8118247943       10.6178535090       28.6818478833
  C        -4.0459836696        9.0966851549       27.7713245685
  C        -1.3917050060       15.1126673672       31.9399343880
  C        -1.4355659131       12.9085334894       33.0066379886
  H         8.4305468126       14.0784335568       19.9150318180
  H         8.4348485353       12.3012235366       19.8729927894
  C         7.5794418587       13.3120881393       18.0990378964
  H         3.4811255616        6.6484284440       15.9703772119
  C         4.1050253016        8.1916025318       14.8415685097
  H         3.6246487294        8.3961212641       29.3552705661
  H         3.0254585675        8.9325687860       30.9469476272
  C         4.5013357610       10.1767552338       30.2097727672
  H        -3.7859145404        8.4391584267       26.9818638735
  H        -4.2194689410        8.4957965454       28.6199946582
  C        -5.3741652125        9.8966538168       27.4668500945
  N        -1.2372832444       16.0307664554       30.9325972105
  C        -1.5654210594       15.6939517065       33.1588492296
  C        -1.7256696998       13.5082609770       34.2443193036
  H        -1.5388529600       11.8636633720       32.8950830891
  H         8.4388968781       13.7210072170       17.5447845257
  H         7.4672141331       12.3139172713       17.6655452699
  H         6.7683836188       13.9857056421       17.8345027067
  S         4.4057096048        9.7540431767       14.3636791628
  C         4.1438162266        7.2169605990       13.7398679397
  H         4.9540092319       10.2926028479       29.2390409483
  H         4.0821425310       11.1695330019       30.6071244482
  C         5.5937794366        9.5944195358       31.2049468521
  H        -5.4486993480       10.8908961515       28.0717113710
  H        -6.2447367047        9.2236702000       27.7392804326
  C        -5.4358895734       10.3504218024       26.0069987549
  S        -1.3414909018       17.5368563124       31.5637065896
  N        -1.5871219257       17.1139733302       33.0872811083
  C        -1.8614256571       15.0377539324       34.3420456515
  H        -1.9568767481       12.8835657038       35.1214747800
  C         4.3987876582        9.1714722606       12.7388436132
  N         4.4549094742        7.8499750094       12.6048365120
  O         3.9950501007        5.9996957788       13.8694863531
  H         5.0760584490        9.2964545101       32.1413722682
  H         6.2818904312       10.4155113557       31.5826004536
  C         6.3035800429        8.3496797498       30.8116231949
  H        -4.4716759127       10.7291875922       25.7052025688
  H        -5.4936846459        9.5043736682       25.3609341091
  C        -6.6157148812       11.3701769786       25.7591409783
  C        -2.1588974353       15.6897439156       35.5169558835
  S         4.8345169552       10.1789508606       11.3178469871
  C         4.5907785666        7.0948862835       11.3763241939
  H         6.0198669846        8.1368233045       29.8392046180
  H         7.3957331057        8.4459206962       30.9025872607
  C         5.9412422674        7.1990906222       31.7286209957
  H        -6.5013960953       11.8088322125       24.7835796801
  H        -6.4114770199       12.1947916167       26.4304580351
  C        -8.0697072931       10.9514204204       25.9297487664
  H        -1.9394564849       16.7467889875       35.5765155682
  C        -2.7878574795       15.3708466804       36.6625891218
  H         5.2993826648        7.6301367298       10.6700794669
  H         4.9419232060        6.1553580826       11.4765918873
  C         3.2011160360        7.0612196710       10.7303414628
  H         4.8876720866        6.8487599902       31.6024555834
  H         5.9524645580        7.6108505096       32.7351688878
  C         6.9767949682        6.1585214424       31.6497890718
  H        -8.0454780479       10.2210752043       26.7600105548
  H        -8.7317009921       11.8135097414       26.1242277739
  C        -8.3850965921       10.3450531578       24.5655120905
  S        -3.6125107368       13.8947049266       37.0091329439
  C        -2.8146501562       16.3292615608       37.7921905152
  H         3.1467079680        6.3131095011        9.9767957760
  H         2.5692932092        6.7392705559       11.5498859089
  H         2.8862979053        7.9701845534       10.3112160653
  H         7.1690764060        5.8363592817       32.6894913329
  H         7.8779448799        6.4935273785       31.2002691682
  H         6.6629694535        5.1831374405       31.1511967608
  H        -7.8596748636        9.3695912884       24.4382608198
  H        -8.1313317507       11.0295034602       23.7360265384
  H        -9.4596332475       10.0978556062       24.5048578000
  C        -4.0710700208       14.5974063243       38.6008959316
  N        -3.4987007955       15.7843647139       38.7709509657
  O        -2.5051993406       17.5396611694       37.7579237992
  S        -4.8643846589       13.6902101394       39.8927527705
  C        -3.6665731693       16.4895031579       40.0472594511
  H        -3.9915700869       17.5081265827       39.8288332383
  H        -4.5468632195       16.2494789509       40.5901948217
  C        -2.4469503953       16.4817944393       40.9669267518
  H        -2.0665624829       17.4869934319       40.9873244552
  H        -2.7561528914       16.1254129599       41.9320372819
  H        -1.6064184335       15.9039134650       40.4685112999
