352
 i =    64400, time =    64400.000, E =        24.9949151721
  H         9.6144425461        5.0345408477       32.3727647741
  C        10.3060272512        5.8838151765       32.3755107053
  H         9.8266309529        6.5691651505       33.0842655951
  C        10.5648200535        6.6619367215       31.0409644767
  C        11.5397716815        5.4119413864       33.1607891090
  C        11.1189253423        5.8423242259       29.9036877703
  H         9.6274328047        7.1463757614       30.8177565433
  H        11.2595327881        7.4783573252       31.2621620484
  H        11.2852981764        4.5468126244       33.8062630644
  H        12.3982733162        5.1397583555       32.5045738251
  H        11.9127246846        6.1714100441       33.8446324428
  C        10.0097459547        5.6718009937       28.8081753809
  H        11.4946462460        4.9243759870       30.3360001374
  H        11.9970694628        6.3541865804       29.5442229010
  C        10.4671616045        5.3426010906       27.3345121697
  H         9.4332682920        4.8546180674       29.2233190574
  H         9.4211180541        6.5880611494       28.7763764139
  C         9.5626990390        4.5329663769       26.4976488556
  H        11.5119706794        4.9441042898       27.3235258047
  H        10.5518246958        6.3113005878       26.7853946862
  C         8.3316729140        5.3150618371       25.9954682118
  H        10.1568935773        4.0681467655       25.6726021013
  H         9.1231281907        3.8330811090       27.2227826087
  C         7.2375224018        4.4621281193       25.2774909531
  H         7.8737467927        5.7139411384       26.9674707442
  H         8.5592970625        6.2076109753       25.4564279536
  C         6.8629160167        3.1035635749       25.9251495505
  C         7.8616776199        3.6950701143       24.1251116985
  C         6.0541635842        5.3270394987       24.7080713094
  C         7.2691457212        1.9906167223       25.2555813076
  C         6.3333278256        2.7773031204       27.1727644782
  C         7.8357957313        2.3282806612       24.0159479306
  C         8.4546387545        4.2760257450       23.0340500151
  H         5.5975553708        4.6083589350       24.0791914163
  H         6.2788870290        6.1577511486       24.0438973685
  C         5.0833612706        5.8561678064       25.7962010882
  S         6.8099208530        0.5453186157       26.0984258289
  C         6.2092266859        1.4220982746       27.3833252980
  H         6.0942150640        3.6345194649       27.8320901540
  C         8.2243846117        1.6852042560       22.8658942939
  H         8.6987599777        5.3067180718       23.1051001052
  C         8.7038920205        3.6288507093       21.8929920958
  H         4.8853115313        5.0512719787       26.5435537043
  H         5.4616146622        6.7623221878       26.3024350501
  C         3.6993780768        6.0818871548       25.1846463415
  C         5.7702599226        0.7492005795       28.6389229373
  C         8.6060061556        2.3325218106       21.7093898255
  H         8.2295339700        0.5776099122       23.0127362475
  C         9.0471880096        4.0707926658       20.6490021549
  H         3.3175082037        5.2407550602       24.6421723736
  H         3.7202134297        6.9276899647       24.5325988812
  C         2.7442218066        6.3905864565       26.3073729945
  C         5.8959641288       -0.6374114677       28.8963049932
  C         5.3436238781        1.5718196312       29.7823144289
  C         8.8741135380        1.6788268579       20.3903136403
  C         9.1351027342        3.0515171802       19.7226333678
  S         9.3563957574        5.6229905906       19.9122513492
  H         2.1772408359        7.2145378879       25.9936394197
  H         3.3508435121        6.7951873548       27.1131272782
  C         1.7774554292        5.1915417732       26.7879901329
  N         6.5043072385       -1.5325914120       28.0695590189
  C         5.6858710161       -1.1832263593       30.1649072081
  C         5.0370677164        1.0501171579       31.0501301053
  H         5.3910941652        2.6478846064       29.7857891084
  C         7.6201359470        0.9780762911       19.7700027069
  C        10.1126635009        0.7121499075       20.5321589361
  C         9.5396521109        3.5078758671       18.4571352119
  C         9.6031063483        4.8802557958       18.3821236751
  H         0.7903753362        5.2389128731       26.3494159080
  H         2.2417141588        4.2918386675       26.3719385372
  C         1.6003025307        5.1002870518       28.3129756117
  S         6.5798095675       -2.9839853048       28.8046846379
  N         5.8515684415       -2.5618347632       30.1468806919
  C         5.1015440907       -0.4465860828       31.2523450439
  H         4.7801562334        1.7596525591       31.7953089050
  H         7.2768606308        0.2178749913       20.4724099906
  H         7.8592643164        0.4512605290       18.8451835885
  C         6.4780149137        1.9061064575       19.4655301309
  H        10.3518814249        0.3494129864       19.5023354080
  H         9.7617785024       -0.1257208638       21.0585670125
  C        11.4169682111        1.4345831073       20.9740739899
  H         9.6351905195        2.7921351264       17.7359187437
  C        10.0392119234        5.6776049287       17.1921928375
  H         0.8396538385        4.4686448680       28.7822763521
  H         1.3809919267        6.1208127723       28.7422812551
  C         2.8899274000        4.5079665474       28.9836686446
  C         4.9291481985       -1.0750152604       32.5124858468
  H         6.7393062686        2.4090335897       18.5626677738
  H         6.2952472548        2.7795397059       20.1742994796
  C         5.1621446522        1.2462609127       19.2435641853
  H        11.2713800036        2.1065486898       21.7878425205
  H        11.7477782002        1.9284277137       20.0209407568
  C        12.4720656091        0.4474127799       21.4057535019
  C        10.1062863414        7.0486350043       17.1257321464
  C        10.4147260737        4.9317976836       15.9955775060
  H         2.9851618735        3.4325570180       28.7239677728
  H         3.6909040563        5.0284961012       28.4692368386
  C         2.8130148559        4.6056153378       30.4790066193
  H         4.8922893695       -2.1893956073       32.4420609550
  C         4.7679926638       -0.5498722029       33.7488466395
  H         4.3831673594        1.9958645438       19.1927122991
  H         4.7922840919        0.4959034919       19.9240724638
  C         5.1518012393        0.6627896419       17.8437305362
  H        12.1280003304       -0.0371532692       22.3224730883
  H        12.3810218945       -0.3391345643       20.6999247455
  C        13.9088405481        0.9846778637       21.4432412338
  N         9.7436975278        7.8718761588       18.1806685759
  C        10.5109777536        7.7778004082       15.9983213540
  C        10.6815053070        5.6286269762       14.8093830397
  H        10.4586247469        3.8470921486       15.9628316010
  H         3.1382889216        5.6006041331       30.7958651537
  H         1.7645307182        4.5242996393       30.8318145998
  H         3.3502303721        3.8334428687       30.9625587341
  S         4.3021117929        1.0167018584       34.2244211339
  C         4.7810840194       -1.5492468609       34.8554817326
  H         5.5195646614        1.2944095511       17.0923735223
  H         5.8394558973       -0.1600707269       17.7590585932
  C         3.7098203487        0.3813432556       17.3671063432
  H        14.0908908878        1.7606448507       20.6552419946
  H        14.4177175977        0.0427974842       21.3034507836
  C        14.2880989622        1.5102225556       22.8425463748
  S         9.7208851066        9.4229905401       17.6005465377
  N        10.4872857262        9.1615242994       16.1578819600
  C        10.8041412033        7.0969624950       14.7465996390
  H        10.7931497811        5.0029150564       13.8575708152
  C         4.3704976368        0.3586299833       35.9370543777
  N         4.5679832916       -0.9418588840       36.0536857596
  O         5.0428946798       -2.7241624874       34.6619245220
  H         3.7094986180       -0.2477596101       16.4914351140
  H         3.1767328207        1.2363806608       16.9413968173
  C         2.6218341305       -0.2705254056       18.2601146483
  H        13.4597445995        2.0733384656       23.3713598374
  H        14.5091250012        0.5637915778       23.4536068019
  C        15.4636899804        2.4859292784       22.7698690930
  C        11.0997309604        7.8417771384       13.5168750799
  S         3.9142821509        1.1819263645       37.4036029737
  C         4.7374559180       -1.5652999883       37.3487089902
  H         2.4827858452        0.1761795807       19.2276383667
  H         1.6265635666       -0.0204527584       17.7473213803
  C         2.7002712743       -1.7675899864       18.4099183661
  H        15.7981869828        2.7291824253       23.7811614304
  H        15.3281110188        3.4385029124       22.2920422521
  C        16.6821046567        1.8459441240       22.1186533614
  H        10.8406920384        8.9244958883       13.5576419390
  C        11.5862531355        7.4889400830       12.2931704991
  H         4.0072982297       -1.1297415877       37.9984027974
  H         4.5670949187       -2.6014258326       37.1116323688
  C         6.1165316179       -1.3772425645       37.9700098107
  H         2.0567416292       -2.0959316245       19.2816200443
  H         3.7458826573       -1.9985327036       18.6610177600
  C         2.5354430886       -2.5710849990       17.1181322147
  H        16.5522504716        0.7599652456       22.1035515296
  H        16.7914672934        2.1436050873       21.0859492032
  C        17.9444546977        2.1202849635       22.9319359457
  S        12.2896260698        5.9517609850       11.7967714363
  C        11.7230506959        8.5911180546       11.3066137820
  H         6.0600040246       -1.5419281906       39.0464417045
  H         6.8853655560       -1.9986857080       37.5124854457
  H         6.5799628953       -0.4019840072       37.8058947574
  H         2.3143014981       -3.6132372978       17.3558160287
  H         3.4450872548       -2.4324081390       16.3900088670
  H         1.6207620902       -2.3457874688       16.5053694088
  H        17.9094639528        1.5832909934       23.9100735711
  H        17.9392000814        3.1918374253       23.2148730666
  H        18.8702129236        1.8157353830       22.3063437851
  C        12.7421938430        6.8235548588       10.2930178439
  N        12.3153167807        8.0717307150       10.1928800872
  O        11.2771330244        9.7567757099       11.5223576580
  S        13.4227733387        6.0736977558        8.7757800107
  C        12.4578138209        8.8947678248        9.0772681312
  H        12.8174754643        9.8080649517        9.5947177920
  H        13.2503560259        8.6279009990        8.4139701954
  C        11.0611400618        9.3441869971        8.5068995588
  H        10.6484387069       10.1831451906        9.0852616530
  H        11.1937862341        9.9990181034        7.6163671720
  H        10.4369762809        8.5065681470        8.2884903357
  H        -2.5699795363       14.8587356119       16.7837237946
  C        -2.7680367785       13.7883165141       16.4841074683
  H        -3.7137376229       13.7260209181       16.0199658844
  C        -2.6546978936       12.7505667487       17.5902400405
  C        -1.8362122992       13.3999461243       15.4257930160
  C        -2.7374510693       13.4344711397       18.9307599936
  H        -3.4551410224       12.0360562869       17.5669709880
  H        -1.6783381783       12.1885117119       17.5452362829
  H        -2.3092039040       13.7636868569       14.4787944920
  H        -0.9047953680       13.9765990613       15.4699039636
  H        -1.7913813915       12.2531444361       15.3522473044
  C        -2.4334602239       12.3921680636       20.0269975380
  H        -3.6459571685       14.0356448946       18.9717687169
  H        -1.9570181655       14.1718927771       19.0421878507
  C        -2.7072747687       12.9797800507       21.3832544413
  H        -2.9698092947       11.4322737482       19.9756252601
  H        -1.3450960518       12.2290003900       19.8537769130
  C        -1.5745632850       12.3165252769       22.3106897517
  H        -3.6953537354       12.8263023233       21.6842770256
  H        -2.4668434508       14.0437954832       21.4615033849
  C        -0.3889765789       13.2437094741       22.5622155067
  H        -2.0392528384       12.0925024798       23.3043927750
  H        -1.1235484297       11.3525670560       21.9389787803
  C         0.8256621083       12.6374108344       23.3127133921
  H        -0.1731928409       13.7076773929       21.6422714854
  H        -0.7409047537       14.0266758485       23.1395005603
  C         1.1879930864       11.2902581279       22.6239137621
  C         0.3959481428       11.8625644293       24.5638374716
  C         1.9466474119       13.6670382893       23.4647150967
  C         1.0196931368       10.1906550791       23.4323001057
  C         1.6133690784       10.8197823357       21.3091806659
  C         0.5225464691       10.5200167328       24.6862064410
  C        -0.0881428516       12.4908522828       25.7228089948
  H         2.0451794749       14.1508437864       22.4988000798
  H         1.5797009544       14.5065580726       24.1507177176
  C         3.3142914326       13.1369326027       23.8630263679
  S         1.5420201829        8.6575596888       22.7725483709
  C         1.8891819885        9.4636369152       21.2178699080
  H         1.7205124074       11.5523455520       20.4887758041
  C         0.2244560073        9.8511187687       25.8354545703
  H        -0.3214838766       13.5312211830       25.6226787440
  C        -0.3669773634       11.8508355924       26.8901333065
  H         3.6589991498       12.2635193427       23.2623340207
  H         3.3329924970       12.8669045438       24.9108933456
  C         4.4215361225       14.1684173530       23.8184796656
  C         2.3333133600        8.7835757406       19.9566305989
  C        -0.1999459462       10.5379592665       27.0111312240
  H         0.3368738399        8.7912072803       25.9217076101
  C        -0.8508005497       12.1818438264       28.1209497795
  H         5.1887266847       14.0452277889       24.5429649635
  H         3.9321279756       15.1212804220       24.1058430366
  C         5.1979303215       14.2165197804       22.5554324065
  C         2.4455489200        7.3874544118       19.7026221669
  C         2.7777268225        9.6739428866       18.8647361650
  C        -0.6623823734        9.8058675999       28.2458991682
  C        -0.9501421512       11.1280578989       28.9931438236
  S        -1.1462485033       13.6853473703       28.9468997366
  H         5.7259707367       15.1344390868       22.4009199024
  H         4.5458714671       14.1718752992       21.6398448252
  C         6.1327561159       13.0175018954       22.4884082357
  N         2.3099562886        6.4324540806       20.7344711162
  C         2.8797623243        6.8393777760       18.4737287885
  C         3.0468464085        9.1189327244       17.5977612249
  H         2.6931772290       10.6831154396       18.8331433640
  C         0.4413366478        8.8479850945       28.8378415766
  C        -2.0133542970        9.0209647897       28.0650994829
  C        -1.3140453973       11.5341222336       30.2965804725
  C        -1.3029954947       12.8968916338       30.4592342604
  H         6.7209499841       13.1047018454       23.3156272445
  H         5.6194329745       12.1489891725       22.6705964906
  C         7.1362112914       12.9735945157       21.2783657013
  S         2.4704600494        5.0054108074       20.0217780697
  N         2.9320517955        5.4250747328       18.5485116282
  C         3.2101220368        7.6406997067       17.3694041550
  H         3.1368365592        9.7689418457       16.7554283270
  H         0.7929395066        8.1768399908       28.0449339185
  H         0.1432028378        8.2624891922       29.6377528594
  C         1.5749542611        9.6380297982       29.3687384214
  H        -1.7881100553        8.2719464062       27.3402144599
  H        -2.2583769192        8.4681985448       28.9274375414
  C        -3.1967405918        9.8280374285       27.4559368822
  H        -1.3711599312       10.7448437167       31.0280189797
  C        -1.5005134493       13.6410361185       31.7377434321
  H         7.8411146377       12.1906570749       21.3950704753
  H         7.8459777726       13.8337240263       21.4678394666
  C         6.5094734031       13.0096040825       19.9073432068
  C         3.4179800893        7.0116102681       16.1584679442
  H         1.9428591727       10.2135366019       28.5175374637
  H         1.3642784956       10.3298642946       30.2005111500
  C         2.6162851320        8.6994931000       29.8887006566
  H        -2.9161810778       10.2333477472       26.4810029543
  H        -3.3468862997       10.6655413260       28.1452396056
  C        -4.4728378782        9.0121270310       27.4120309721
  C        -1.6976781593       15.0309919202       31.8796417685
  C        -1.7216321070       12.8836598883       32.9441963041
  H         5.9047434891       12.1024449937       19.7988873931
  H         5.9701799047       13.9168870940       19.7961399514
  C         7.5459275863       13.0241981861       18.9087873339
  H         3.1082636720        5.9109627407       16.1634370214
  C         3.7525160130        7.4736725112       14.9195424914
  H         2.8679215913        8.0248189549       29.0810071595
  H         2.3284920110        8.0932994195       30.7109950792
  C         3.9151620381        9.4863127197       30.2170402124
  H        -4.3006987299        8.1972067119       26.7651374023
  H        -4.8132764379        8.6418358109       28.3920619171
  C        -5.6439958035        9.8884756187       26.8830508811
  N        -1.5678635740       16.0057070085       30.8655093090
  C        -1.9824599544       15.5971493673       33.1198824344
  C        -2.1032489384       13.3846132755       34.2037479284
  H        -1.7290399690       11.7828956120       32.9101281602
  H         8.2950680885       13.8328957006       18.9006530146
  H         8.0870724090       12.1306621341       19.0090276875
  H         6.9506177604       13.0851104249       17.9815171560
  S         4.2967484157        9.0460024574       14.4173207335
  C         3.8263273136        6.4762962538       13.8076350812
  H         4.1516160252       10.2696182233       29.5457280051
  H         3.8915708895       10.0228627819       31.1828905167
  C         5.1767060814        8.5166984132       30.0390931896
  H        -5.4398388477       10.6489141163       26.1776627933
  H        -5.9650403934       10.4695605516       27.7128133603
  C        -6.6500869215        9.0216940213       26.2254446042
  S        -1.6482408156       17.5228037417       31.5550401148
  N        -1.9332225412       17.0228492970       33.1045044854
  C        -2.2134412846       14.8509117427       34.3628279317
  H        -2.0701311292       12.7248352439       35.0263166497
  C         4.3629355312        8.3685862818       12.8223963873
  N         4.2271736808        7.0375337495       12.7228783284
  O         3.2416958148        5.3717659596       13.9631722375
  H         5.9672706223        9.0908135252       29.7870199342
  H         5.2006501856        7.9328227155       29.1480489712
  C         5.4256702507        7.7758449928       31.2816417754
  H        -6.2097027204        8.2166380801       25.5836236308
  H        -7.1823393621        8.6483262757       27.0734025770
  C        -7.4239786867       10.0636726554       25.3430285131
  C        -2.4003634517       15.4893270874       35.5906404263
  S         5.1307210423        9.2361439499       11.4870577992
  C         4.3141850846        6.3233461705       11.4177811357
  H         5.5468499117        8.4082103729       32.1782737576
  H         4.5740928811        7.2517073194       31.4938273588
  C         6.6003218040        6.8671305340       31.2005397230
  H        -6.7870627358       10.4672895989       24.5162104485
  H        -7.6280789302       10.9512602801       25.9357677344
  C        -8.7489405988        9.5159692787       24.8314738738
  H        -1.9820147711       16.4718276261       35.6589960584
  C        -3.1495713042       15.1491843235       36.6751509024
  H         5.1741215635        6.5957612991       10.8657608663
  H         4.3591207130        5.2778135275       11.7536008748
  C         3.0255755985        6.3806190033       10.6150467349
  H         6.5508505607        6.1484396331       31.9642051772
  H         7.4293447390        7.4178956120       31.2317222541
  C         6.7461191072        5.9870060303       30.0457576352
  H        -9.0927293037        9.9086031258       23.8758481803
  H        -8.6486851574        8.3979602294       24.5800968687
  C        -9.8383477362        9.5986342376       25.8660165547
  S        -4.0091682039       13.5926713023       36.8296305333
  C        -3.3530449122       16.1742912851       37.7467244714
  H         2.2784380523        6.2019638564       11.4211738681
  H         2.7909784538        7.2664830271       10.1013378403
  H         3.0136136468        5.5143361443       10.0452332510
  H         6.8675277721        6.5417237323       29.1670919911
  H         5.9257700382        5.2024784118       30.0613269511
  H         7.5416977483        5.2437811789       30.2162179541
  H       -10.5849827545        8.8324235615       25.7234961353
  H       -10.3515024560       10.4979652648       25.8634571417
  H        -9.4106980845        9.3672567911       26.8478542339
  C        -4.5075626238       14.2458922178       38.4362566461
  N        -4.1954321605       15.5422411686       38.6919959197
  O        -2.9271337579       17.3117911814       37.6758768646
  S        -4.9273138228       13.1659389995       39.7969341572
  C        -4.3419222277       16.2199746763       39.8875288968
  H        -4.3575648949       17.3146736166       39.6828612087
  H        -5.3753147139       15.9318007366       40.2799776594
  C        -3.1955275129       15.8014903703       40.8812584053
  H        -3.5830156566       15.4905900901       41.7633246031
  H        -2.5449057697       15.0647265044       40.4974072862
  H        -2.5412408464       16.6069490604       41.1736063098
