352
 i =    37900, time =    37900.000, E =        25.2842011265
  H        11.8314045156        7.0144520147       32.6872232099
  C        11.4417595547        5.9233301494       32.6619913500
  H        12.3428032566        5.2450913871       32.3543081661
  C        10.4483980942        5.6914939650       31.5380831556
  C        10.9199628171        5.6782094642       34.0718961086
  C        11.0816008132        5.9616208602       30.1119746863
  H        10.0150200524        4.6116200912       31.5795220714
  H         9.6291639915        6.4520198138       31.7397498038
  H        10.0779909145        6.3252488377       34.3374753749
  H        10.6366219494        4.6092057035       34.1748532799
  H        11.6222147736        5.8548798974       34.8958256742
  C        10.0700611758        5.9061644720       28.9210876523
  H        11.7445092551        5.1748506020       29.8356573998
  H        11.5815805171        6.9435270460       30.1229092471
  C        10.7199811158        5.7318957390       27.5559345619
  H         9.3467991919        5.1753766179       29.1542468911
  H         9.5752780554        6.9093796172       28.8712786087
  C         9.7691347224        5.0367930988       26.5357168267
  H        11.6447365407        5.1500011767       27.6546903902
  H        11.1539750608        6.6587162840       27.0770224894
  C         8.5300951935        5.9930370954       26.1810319775
  H        10.3131628285        4.8576218105       25.5850658298
  H         9.4981779566        4.1702766783       26.9857365945
  C         7.3054588975        5.2659294115       25.5439376831
  H         8.1140368604        6.6514630483       26.9251823646
  H         8.7719851098        6.7584016083       25.3880622095
  C         6.9921743177        3.9210224194       26.2364796449
  C         7.6943482620        4.5544423637       24.3020599124
  C         6.0081772351        6.1338846610       25.4812134207
  C         7.1680441897        2.8204615049       25.4337115217
  C         6.4022863698        3.5329107661       27.4467960568
  C         7.5599519421        3.2073886825       24.2009723568
  C         8.1660681926        5.2304485166       23.1746710071
  H         6.2235232981        6.8952110476       24.7837324846
  H         5.7932758151        6.6815726425       26.4164465525
  C         4.6170856419        5.3970035019       25.0562462264
  S         6.8586260424        1.3026134551       26.1937169252
  C         6.3042166672        2.1701378534       27.5882156228
  H         6.1986883826        4.3467488420       28.1126288848
  C         8.0408707186        2.6332159057       23.0101168225
  H         8.2146295127        6.3270538833       23.2358328016
  C         8.5007020349        4.6557255984       21.9873930124
  H         4.6898640389        4.9982520643       24.0386322583
  H         4.2448040063        4.5361927739       25.6690587997
  C         3.3830231427        6.3198147923       25.0308013199
  C         5.7817685973        1.4667790366       28.8420125195
  C         8.5969250311        3.2857157825       21.9328912007
  H         7.8931745265        1.5756945297       23.0581616887
  C         8.9350629453        5.0494283858       20.7095687942
  H         2.7132362922        5.9002748990       24.3184328578
  H         3.6267082989        7.2752097406       24.5433991629
  C         2.7121294312        6.4209172288       26.3637907569
  C         5.8283065852        0.0486042145       28.9955987597
  C         5.2058038758        2.3561274036       29.8772343349
  C         8.9651791198        2.6025568424       20.6315461471
  C         9.1563261620        3.9592532533       19.9281176788
  S         9.0755327627        6.5853668190       19.8846378175
  H         1.8943355943        7.1443098715       26.3211023306
  H         3.5020897759        6.6524689904       27.0920800867
  C         2.0562987308        5.1344029006       26.9312786710
  N         6.1252644348       -0.9767490289       28.0142053755
  C         5.5153795773       -0.4443309110       30.2620336572
  C         4.9982537675        1.9094550140       31.1619905993
  H         5.0774262101        3.4550670134       29.6971380669
  C         7.8301764257        1.8178162281       19.9440000255
  C        10.2759943692        1.9160518982       20.5863872527
  C         9.4383256679        4.2842093880       18.6022332116
  C         9.4442484774        5.6954542560       18.4810617871
  H         1.3859929309        4.6842083118       26.2005597553
  H         2.7967756250        4.3417492110       27.2372556386
  C         1.3227701635        5.4458747027       28.2882078244
  S         5.9553006402       -2.4169989582       28.8161342338
  N         5.4913679676       -1.8716556712       30.2656143851
  C         5.1912278625        0.4391884902       31.4091608132
  H         4.7128792578        2.6166290690       31.9183599506
  H         7.4679322384        0.9999100728       20.6668146217
  H         8.2720184337        1.3596850305       19.0386353854
  C         6.7115409587        2.6099691390       19.4343940208
  H        10.3787609088        1.5641801532       19.5880221019
  H        10.3166793690        1.1273043425       21.2927250458
  C        11.4932949540        2.7522890029       20.9954366307
  H         9.6986885135        3.5080021945       17.8681547054
  C         9.8652861348        6.4322470150       17.2331134757
  H         0.5215334187        4.7036429806       28.6135215619
  H         0.7515428990        6.3602299387       28.1337037933
  C         2.2661086136        5.3537027732       29.5212984560
  C         4.8253295105       -0.2212858204       32.6622895595
  H         7.0693742205        3.2083606997       18.5689260981
  H         6.3209360165        3.2076686162       20.2165839680
  C         5.5256607242        1.8154758509       18.8455966585
  H        11.4347440128        3.2148234320       21.9778870168
  H        11.4941631034        3.6167403756       20.3521730491
  C        12.8478978196        2.0290588071       20.7479375682
  C         9.9544126506        7.8397469394       17.0564593921
  C        10.1258064324        5.5636765271       16.0581620024
  H         2.8054945602        4.4444379447       29.6155747087
  H         3.0284765869        6.0963508743       29.2990998783
  C         1.6756655300        5.5579883657       30.9786683645
  H         4.7369895853       -1.2664456822       32.6618509234
  C         4.6209904538        0.2097761428       33.9868122749
  H         5.1278406114        1.1874046014       19.6208703566
  H         5.8020781193        1.2387587757       18.0167282713
  C         4.5326956916        2.7523128703       18.2207015822
  H        12.8425200982        1.0926995579       21.4055578522
  H        12.8213544752        1.7018482031       19.6892312503
  C        14.0773145113        2.9213948940       21.0329351588
  N         9.6193254859        8.8616410459       17.9891374321
  C        10.3596170872        8.3808212544       15.8551799200
  C        10.5355674406        6.1660741371       14.8682614474
  H        10.1044548059        4.4873316479       16.1901028127
  H         0.9471722308        6.3961892274       31.1301958400
  H         1.1640017894        4.6294423510       31.2436313575
  H         2.4826256135        5.6303730661       31.7267720369
  S         4.4686132593        1.8303379280       34.5485815311
  C         4.5651360568       -0.8471191966       35.0285726788
  H         4.7489956777        3.7705899562       18.5929153468
  H         4.6961082287        2.8990966917       17.1053995803
  C         3.0236661341        2.3140923149       18.2500413385
  H        13.9369417835        3.9130005945       20.6586640118
  H        14.8118036494        2.5860049511       20.3553494808
  C        14.3589518557        3.0725656959       22.5130754023
  S         9.8026067212       10.3080439897       17.2953240510
  N        10.4396366761        9.8257279102       15.9432149419
  C        10.6775175618        7.6084490570       14.7541032802
  H        10.7541861182        5.5781742242       13.9487534178
  C         4.2711462598        1.1689285488       36.1593547092
  N         4.3115607715       -0.2101400017       36.1375411089
  O         4.8745747582       -2.0423780655       34.8602353101
  H         2.5217219410        2.6769803248       17.3643195743
  H         2.5682001533        2.8580646332       19.0394459889
  C         2.6680269533        0.8309078968       18.3994671295
  H        15.1566993530        3.8243611248       22.6835985625
  H        13.4628368864        3.4283204548       22.9930775207
  C        14.9025652018        1.7458096338       23.1410460252
  C        10.9335108507        8.3319974733       13.5333181720
  S         3.6233620561        1.9539214019       37.6354272794
  C         4.3013676429       -0.9758607117       37.4297228287
  H         3.3126410864        0.2032271293       19.1357672754
  H         1.6522687436        0.7630386226       18.7491925436
  C         2.8210131664        0.1080060697       17.0289988517
  H        15.2202866701        1.0309643381       22.3560961957
  H        14.2317652582        1.2522996901       23.8525920813
  C        16.2673674270        1.9415563609       23.8636646023
  H        10.3763052221        9.2588313411       13.5143472194
  C        11.5261697390        7.9789910417       12.3296168240
  H         3.5785299052       -0.5386579456       38.1720161177
  H         3.9289037585       -2.0100272724       37.3254019202
  C         5.7827364057       -0.9849502783       37.8486382247
  H         3.8473210777       -0.0133434121       16.6827681666
  H         2.3780982533        0.7201697862       16.2079882723
  C         2.0657450322       -1.1772866254       16.8186011126
  H        16.2289178648        2.7492798028       24.5577595687
  H        16.4838336110        1.0959649743       24.4687413935
  C        17.3238119522        2.0076607671       22.7667360509
  S        12.2901551994        6.4324477178       11.8997412925
  C        11.6484668131        9.0296056537       11.2925443456
  H         5.8118700603       -0.3938482800       38.7545343176
  H         6.2124872036       -1.9001528802       37.9966474199
  H         6.4743510467       -0.4945578951       37.1724790371
  H         1.0868611856       -1.1716104652       17.2808929348
  H         2.6350905461       -2.0392181795       17.2300521052
  H         1.9275801078       -1.4686883164       15.8559729195
  H        18.1287853472        1.2969705051       22.8941107493
  H        17.7702782194        3.0249190525       22.8026965233
  H        16.8815681133        2.0341872188       21.7416701860
  C        12.7577079863        7.2752389280       10.3670550056
  N        12.3003682805        8.5303164926       10.2297550370
  O        11.0929730632       10.0943283695       11.4048315701
  S        13.2190308895        6.4566386735        8.8077474546
  C        12.3030914208        9.3469169510        8.9921829255
  H        12.6740527875       10.3805982554        9.1123567579
  H        12.9694466495        9.0136231065        8.2537037744
  C        10.8818216473        9.3562599271        8.2952762786
  H        10.3443632347       10.0894912331        8.8803109381
  H        10.8960668686        9.7037656925        7.2022323444
  H        10.3917692773        8.4050664959        8.3401096142
  H        -3.2311246800       14.8466807499       16.3878664609
  C        -3.0705734348       13.7393398260       16.2692667671
  H        -4.0945837822       13.3289857631       16.3230531385
  C        -2.0411677482       13.2522298023       17.3684816385
  C        -2.5657246641       13.4963227661       14.8526258787
  C        -2.5704490472       13.4523434347       18.7381019991
  H        -1.8647597421       12.1589361275       17.2159009830
  H        -1.0965961840       13.7485485997       17.1802270883
  H        -1.5497941044       13.0733873839       14.8820009948
  H        -3.2789844924       12.9044326167       14.2511350591
  H        -2.4853822802       14.4855857777       14.3000922105
  C        -1.6632613871       12.9704773797       19.7895139688
  H        -3.4899978632       12.8770695938       18.9462946657
  H        -2.9198376676       14.4734772558       18.8975856457
  C        -1.7837152953       13.5787284862       21.1413828772
  H        -1.8621945924       11.8863671561       19.9336100216
  H        -0.6531242486       13.1086464411       19.4832040724
  C        -0.9387122911       12.8947727906       22.1534352257
  H        -2.8919589143       13.5696411374       21.2693069714
  H        -1.4878426470       14.6507931240       21.0691804200
  C         0.2357569056       13.8113327276       22.5809937843
  H        -1.5415286915       12.7836334378       23.0055845160
  H        -0.7349082074       11.8883890709       21.8351531205
  C         1.2870301575       13.0767300171       23.4234049638
  H         0.6486137259       14.3583630279       21.6874114348
  H        -0.2443200869       14.6077390907       23.3276498765
  C         1.6083263690       11.7240729860       22.6418236751
  C         0.7863072924       12.3023383692       24.5899572448
  C         2.5504799163       13.9002288937       23.8146858519
  C         1.2896477696       10.5993415016       23.3996981492
  C         2.1361051957       11.3675274318       21.3755414459
  C         0.8286550888       10.9422423704       24.6215409398
  C         0.2966168998       12.9299729406       25.7702209534
  H         2.7671311048       14.5092960675       22.8860092955
  H         2.4813616034       14.6274831223       24.5938880231
  C         3.8637412231       13.0563320114       24.0760764814
  S         1.6502773019        9.1133632197       22.6263626327
  C         2.2780191101       10.0233512849       21.2634768029
  H         2.3400607942       12.2038112517       20.6881448668
  C         0.5044446085       10.3398327236       25.8210957272
  H         0.3808658526       13.9785900204       25.7088304515
  C         0.0120849132       12.2898897935       26.8997193163
  H         3.9778873394       12.2785784945       23.3825560298
  H         3.7291172235       12.6203948777       25.0905212102
  C         5.1588160978       13.9649511323       23.9925369546
  C         2.6527603759        9.3390726401       19.9915043240
  C         0.0105578237       10.9423184515       26.9891935160
  H         0.6559478880        9.2519654808       25.9143876690
  C        -0.5279925721       12.5961182453       28.1143631072
  H         5.9640065705       13.5171876671       24.6116401125
  H         4.8208246713       14.8941871478       24.4093227471
  C         5.6001080805       14.1425772188       22.5893943040
  C         2.6009593827        7.9678159810       19.6448328909
  C         3.0677209472       10.2179780888       18.9061380587
  C        -0.4683445591       10.1583779974       28.1690142592
  C        -0.7584242850       11.4646739685       28.8642583612
  S        -0.9039524592       14.0859866826       28.9548834647
  H         6.3543537296       14.9798792882       22.6742276011
  H         4.7993194253       14.4547354325       21.8799233424
  C         6.2876014237       12.9450236967       22.0076602969
  N         2.3780170094        6.9483901124       20.5860783302
  C         2.8897608292        7.4630407237       18.4120316065
  C         3.2894725586        9.7504206144       17.6398043783
  H         3.2960356409       11.2523101817       19.1217147188
  C         0.6618964651        9.3336488094       28.8846451331
  C        -1.7498162856        9.3737202599       27.8525258043
  C        -1.2380967651       11.8280754804       30.1685991906
  C        -1.2975569342       13.2004665202       30.3615492802
  H         7.0380975850       12.5806460871       22.7404438628
  H         5.5823224486       12.1253737027       21.7146576242
  C         7.2293276081       13.3045467303       20.8792338969
  S         2.4911852003        5.5444987067       19.7939913199
  N         2.7092437144        6.0938107597       18.2897321426
  C         3.2461732689        8.3049247721       17.2893274096
  H         3.4918245759       10.5047475659       16.9530757437
  H         1.0476069404        8.5319761290       28.3340069490
  H         0.3045137522        8.9784008957       29.8209046194
  C         1.8856472990       10.1504252660       29.3030532037
  H        -1.5681421354        8.4326379743       27.2455857076
  H        -2.1721480086        8.9658203754       28.7838876982
  C        -2.8506240210       10.1742385764       27.0969513102
  H        -1.4242907978       11.0767965435       30.9169685799
  C        -1.6203381288       13.9214980991       31.6851430682
  H         7.4046792418       12.4063032533       20.3054375449
  H         8.1810859598       13.7615084474       21.2227630159
  C         6.8233224405       14.2322901123       19.7542340158
  C         3.3936779537        7.7352879364       16.0149291231
  H         2.3816423029       10.6172663577       28.4650123983
  H         1.6443212831       10.9386430565       29.9847289753
  C         3.0111580451        9.4170489107       30.0076700925
  H        -2.5551157878       10.1665248935       26.0801936694
  H        -3.1296315609       11.1054823761       27.5420344971
  C        -4.1173085724        9.3484038396       26.9939504294
  C        -1.6738233495       15.3184994264       31.8523849310
  C        -1.9734998366       13.0988765930       32.8942720065
  H         6.3295646881       15.1340966638       20.1425891283
  H         7.7776440095       14.4472867507       19.4107764532
  C         5.8885718463       13.5363741812       18.7558510037
  H         3.2682188763        6.6921157451       15.9340765598
  C         3.7843052681        8.2189492798       14.7427693463
  H         3.4732304312        8.7373827096       29.2882360724
  H         2.6155299056        8.8062789123       30.8371558716
  C         3.9577328675       10.3886577667       30.6687380032
  H        -3.9688412798        8.3397199494       26.6840942662
  H        -4.6895799646        9.2613661653       27.9213734085
  C        -5.0596691036        9.9673649992       25.9739457321
  N        -1.4721671762       16.2426593667       30.8130706252
  C        -2.0491947875       15.8770526916       33.0654529326
  C        -2.2470924931       13.6833055501       34.0861334511
  H        -1.8383967195       12.0359565971       32.7797542931
  H         6.3429651260       12.6987490519       18.2354790374
  H         5.0029449017       13.1740196453       19.2556707925
  H         5.5067726598       14.2345505460       18.0597558838
  S         4.1059099478        9.8473577840       14.3074093456
  C         3.9414408035        7.1833385510       13.6263823296
  H         3.9420301051       11.3006852069       30.0498132667
  H         3.5394521389       10.5991054391       31.6479842723
  C         5.3949269178        9.8979779030       30.7349129545
  H        -5.1881208844        9.1130981826       25.3154333732
  H        -4.5276319891       10.6619389927       25.3994050272
  C        -6.3769432088       10.2777866253       26.5874451913
  S        -1.6345901449       17.6980381199       31.5002524110
  N        -2.0129266593       17.2688259814       33.0243895336
  C        -2.3456852757       15.1759748993       34.2587564639
  H        -2.3736666567       13.0018220221       34.9458652166
  C         4.3161175040        9.2406602948       12.6768823593
  N         4.3492406454        7.8806168883       12.5516977207
  O         3.8338686807        5.9621972328       13.7186963761
  H         5.9709091415       10.4795843945       31.4309795818
  H         5.6868569726        9.9390266347       29.6829784200
  C         5.4901257347        8.5077768005       31.4560379162
  H        -6.6700211430        9.3659293592       27.1088124678
  H        -6.2970411378       10.9183190592       27.4232956923
  C        -7.4368901329       10.9302975478       25.6074661556
  C        -2.6798167510       15.9485403999       35.4158121721
  S         4.4535274888       10.2062897055       11.2669094228
  C         4.2827321899        7.1835735689       11.2672109793
  H         6.3048571487        8.3879618475       32.1822819685
  H         4.5462558352        8.2145877940       31.8731694858
  C         5.8009697708        7.4376165113       30.4033798124
  H        -6.9363633527       11.4068309509       24.7485916734
  H        -7.9684601698       11.7745602720       26.1288855669
  C        -8.5268685743        9.8708071709       25.1551533092
  H        -2.4648661775       16.9970063912       35.3589692314
  C        -3.1770599250       15.6060682773       36.6478427294
  H         5.0282655315        7.5998120102       10.5718165104
  H         4.7358109072        6.1841788297       11.4024311684
  C         2.9053424036        7.1305184463       10.6618823413
  H         6.7611770821        7.6846943688       29.9782554248
  H         5.1150281144        7.3795874928       29.5048846313
  C         6.1162096669        6.0688329488       30.9361313938
  H        -8.8504124043       10.1614287176       24.1082253331
  H        -7.8862660822        8.9937225939       25.0529453278
  C        -9.6949689968        9.5462322539       26.0619892685
  S        -3.6498437524       14.0646849152       37.1362941248
  C        -3.3114514815       16.6108736959       37.7750361522
  H         2.3643724232        8.0553445311       10.7429832231
  H         2.9842454770        6.8833201546        9.6103743019
  H         2.2389450281        6.4436155832       11.1316386094
  H         5.4376946962        5.7108033423       31.7114097796
  H         7.0942542136        6.0553062279       31.4071865341
  H         6.1701738030        5.4055064808       30.1060579311
  H       -10.2035091379       10.4423981905       26.3592644916
  H        -9.4642662617        8.8668204813       26.9427921068
  H       -10.3845076344        8.9000294965       25.5233233931
  C        -4.2024647628       14.7730207099       38.6445456636
  N        -3.9249180837       16.0479245252       38.8433664971
  O        -2.8476956855       17.7351952172       37.6842323665
  S        -5.1126792283       13.8573535743       39.9515665547
  C        -4.1100679902       16.8593763442       40.0254037359
  H        -4.6153252873       17.8211462641       39.9206430982
  H        -4.8585908547       16.3854913093       40.6543197903
  C        -2.7889458551       17.0901084732       40.8560890616
  H        -1.9265354307       16.8590403893       40.3736267048
  H        -2.6746556740       18.1436871835       41.1028254532
  H        -2.7474806271       16.6226768639       41.7938147936
