352
 i =    63400, time =    63400.000, E =        25.1579567942
  H        10.1591780725        4.4484215018       32.1526155084
  C        10.2748827726        5.4054976111       32.5848422632
  H         9.3006762829        5.6172259494       33.1774969748
  C        10.4440553571        6.4951515361       31.5090480946
  C        11.4900465683        5.2899129508       33.4736819970
  C        10.9053448678        5.9647910099       30.1472433901
  H         9.4536467026        6.9461000584       31.6022787939
  H        11.2254660253        7.2674395829       31.7534678066
  H        11.4061664789        4.3889461906       34.1104235319
  H        12.3964894700        5.1822455646       32.9062643324
  H        11.6634612043        6.1075845726       34.1635759747
  C         9.8466882732        5.8808031751       29.0575221141
  H        11.3246399439        4.9835688054       30.3311968877
  H        11.7925007379        6.5590517670       29.8329365101
  C        10.4703559568        5.7473332193       27.6276036899
  H         9.2102682051        5.1237506777       29.3341932652
  H         9.2017939005        6.7220940201       29.0410090158
  C         9.6302805109        5.0059334298       26.5934404741
  H        11.4388479017        5.2578585067       27.7904505272
  H        10.6694261736        6.7397795375       27.2111717528
  C         8.3078180989        5.7314559320       26.2093499012
  H        10.2463260416        4.7812746950       25.7185912944
  H         9.3213373145        4.0097400607       26.9951731527
  C         7.2807566176        4.8440518585       25.4706942112
  H         7.8496285459        6.2284264371       27.0806367360
  H         8.5769300458        6.6218768697       25.5923695841
  C         6.8728680047        3.4727893234       26.2187442954
  C         7.8157674648        4.1166008971       24.2570567995
  C         6.0062184772        5.6372047729       24.9274319412
  C         7.1058967667        2.3905705936       25.3851537995
  C         6.3377351064        3.0785200103       27.4427470602
  C         7.7119455193        2.7521724162       24.1828391987
  C         8.3699665676        4.8028464871       23.1666143517
  H         5.6749525541        5.1528927644       23.9996306717
  H         6.2628292354        6.5903318077       24.4101353109
  C         4.9261088320        5.8116741225       25.9995120971
  S         6.6490394715        0.9512835010       26.0973329552
  C         6.0812119065        1.7416904621       27.4909448652
  H         6.2172703353        3.9071351884       28.1931939450
  C         8.0377501396        2.1506189214       22.9653263555
  H         8.3790663855        5.9151648532       23.1610400918
  C         8.8320404986        4.1933709320       22.0271568960
  H         4.7703404186        5.0306780219       26.7259316120
  H         5.2607732131        6.5811055598       26.6233258758
  C         3.5993286091        6.1223870116       25.2638170042
  C         5.5694405450        1.0144394314       28.7462128333
  C         8.5296703841        2.8924621705       21.8691343205
  H         7.7503217632        1.1667502305       22.9172058968
  C         9.1872927075        4.6421052402       20.7486677300
  H         3.4700013709        5.5047396513       24.3951132558
  H         3.7410370785        7.1285348569       25.0492943134
  C         2.3312940714        6.2060603137       26.0868720147
  C         5.6684834696       -0.3939933515       28.9796641925
  C         5.1313621347        1.8838104924       29.8672909446
  C         8.7764237163        2.2550749057       20.5196204121
  C         9.1183504282        3.5963804372       19.8717691087
  S         9.1248967146        6.2501431730       19.9825150525
  H         1.5417042577        6.7270357409       25.5507258415
  H         2.6053513719        6.8347357924       26.9011176412
  C         1.9016945959        4.8541449118       26.6259604608
  N         6.1418501203       -1.3538919801       28.0670155455
  C         5.2514647146       -0.9169719593       30.1714371378
  C         4.7210099538        1.2955230289       31.0166051050
  H         5.1063750539        3.0122145739       29.8352417171
  C         7.6051312701        1.5466449179       19.8910237611
  C        10.0688117521        1.4097040839       20.3983813511
  C         9.4714674694        4.0259193584       18.5436956517
  C         9.6427182096        5.4014541765       18.4513450467
  H         1.2887336968        4.4525419316       25.8523857363
  H         2.6723604129        4.1584243440       26.9262437261
  C         0.9691952822        5.1579280339       27.8150340273
  S         6.1169421339       -2.7469259726       28.7776444280
  N         5.4466681990       -2.3180358617       30.1543338893
  C         4.8605751500       -0.1315830124       31.3267998171
  H         4.2906054109        1.8751824648       31.7737529319
  H         7.5370078890        0.6438457595       20.4235543846
  H         7.9269338776        1.3275345877       18.8997912956
  C         6.3279233889        2.3915232968       19.8262899674
  H        10.2688133990        1.3999101270       19.3347755654
  H         9.9292282046        0.3438840871       20.6578563062
  C        11.3745714978        1.9206319343       21.1239903018
  H         9.5440220696        3.2934730089       17.6986497255
  C         9.8523903940        6.1780402893       17.1870457950
  H         0.1516067462        4.3802278287       27.8777801729
  H         0.4614089275        6.1647234539       27.6110995216
  C         1.7634264012        5.3651616366       29.1470273691
  C         4.5852991136       -0.7372739541       32.5934348627
  H         6.4037987740        3.1522056477       19.0812621472
  H         6.0502972691        2.7268724544       20.7957374267
  C         5.1730911702        1.5678831261       19.3707109356
  H        11.1731896100        1.7751068401       22.1583340071
  H        11.5037798440        3.0196415392       20.8584654739
  C        12.7000062739        1.2919658738       20.8241307952
  C         9.9439430741        7.6313682610       17.1222725141
  C        10.0437847807        5.4901127432       15.9431578900
  H         2.5187182172        4.6554620126       29.2037309201
  H         2.3116828679        6.3061423712       29.0601633917
  C         0.9420427126        5.0877772410       30.4245118544
  H         4.8146210491       -1.8037154313       32.5892653354
  C         4.4284475969       -0.2560721269       33.8442368331
  H         4.3777024378        1.4483374222       20.0928737209
  H         5.5073086018        0.4940781212       19.2522779515
  C         4.6663222924        1.9979734312       17.9973771753
  H        12.7842022446        0.2785555209       21.1785789185
  H        12.9251994022        1.1802541103       19.7572285949
  C        13.8858354895        2.1873583724       21.3651184249
  N         9.8681033515        8.5818179886       18.1529374985
  C        10.1206431371        8.2985580767       15.9046447893
  C        10.3967978620        6.1257224107       14.7182145813
  H        10.0476485445        4.4311231600       15.9047549984
  H         0.3367993473        5.9845534930       30.5901082010
  H         0.2573611664        4.2007406138       30.3095971197
  H         1.6466393168        4.8596577332       31.2227302627
  S         4.0965862829        1.3846402680       34.3285644566
  C         4.4015562740       -1.2828073077       34.9255938429
  H         4.4007327440        3.0875165893       18.2122285763
  H         5.4508863714        1.9920595813       17.2122418607
  C         3.4863416859        1.2631443781       17.4590109849
  H        13.6534427787        3.1989277325       21.0392289378
  H        14.7345120382        1.8296599785       20.8011649650
  C        14.2092529550        2.0718828928       22.8532599716
  S         9.8655816488       10.1150139882       17.5417412190
  N        10.1571439661        9.7075540578       16.0164106512
  C        10.3949221211        7.5952847599       14.6749162595
  H        10.6971725762        5.5367821718       13.9026404102
  C         4.0717273708        0.7136030764       36.0002622353
  N         4.0653165594       -0.6261068515       36.0683311745
  O         4.6927310449       -2.5195327911       34.8478325241
  H         3.1629839459        1.6244818692       16.4798182316
  H         2.6670614378        1.5341708623       18.1355244374
  C         3.4803523111       -0.2890223396       17.4950778993
  H        13.2697875418        2.2084236306       23.4161989927
  H        14.3495089083        0.9874375200       23.0659841764
  C        15.3383722690        2.9871795648       23.2941712840
  C        10.6625325506        8.3606506874       13.4800388634
  S         3.3773767490        1.6310248002       37.3953106421
  C         4.0655757358       -1.3481770779       37.3793465806
  H         4.5163094697       -0.6141908291       17.5099667711
  H         3.0770699650       -0.5965698913       18.4691534976
  C         2.6029716814       -0.9316837136       16.4030932257
  H        15.2048181651        3.2381229513       24.3236969495
  H        15.1992095830        3.9440160409       22.7741088756
  C        16.7792362319        2.4177890361       23.0762776064
  H        10.3107990394        9.3292615498       13.5021813325
  C        11.2905429459        8.0925225502       12.3391140989
  H         3.3905955072       -0.9012406444       38.1423129909
  H         3.6462718966       -2.3340548743       37.1629828201
  C         5.4739181113       -1.5711849629       37.9598472046
  H         3.0186812056       -0.5925876566       15.3935354788
  H         1.5471649745       -0.5447203967       16.6026650740
  C         2.6500331680       -2.4410424232       16.4859899760
  H        17.5062882752        2.8917239981       23.7848303920
  H        16.6416082180        1.4043991900       23.3169446058
  C        17.3903147593        2.6047616977       21.7055484160
  S        11.9642576423        6.5478668429       11.8413081757
  C        11.3341920525        9.1512764726       11.3106642940
  H         5.6858225551       -0.7755486152       38.6744942516
  H         5.7169393864       -2.5786042023       38.4890208197
  H         6.2976685126       -1.4520138758       37.1897991369
  H         1.9309337626       -2.7536044251       17.2813889070
  H         3.7400652762       -2.7740932480       16.5731850979
  H         2.3116389090       -2.9128578927       15.5347273666
  H        18.3391376604        3.1458624798       21.7863471828
  H        16.7255711382        3.2194828286       21.1047135911
  H        17.6077508765        1.7318062233       21.0451393768
  C        12.3927294995        7.3148626797       10.3607222871
  N        12.0671595137        8.6398938773       10.2681207275
  O        11.0898088224       10.3761677930       11.5776172255
  S        13.1025886268        6.5921541739        8.9739132638
  C        12.2676132868        9.5628303470        9.1144937872
  H        12.4862909575       10.6129076677        9.4782918069
  H        13.1294269722        9.1755149465        8.6285266253
  C        11.1967695546        9.5822163036        8.0880676023
  H        10.2357115323        9.2103974463        8.4944059121
  H        10.8885187220       10.5797394501        7.7250332436
  H        11.6000536779        9.0835746121        7.2293138519
  H        -3.9114739596       14.1326409062       16.5416642684
  C        -3.2132040415       13.2954998382       16.3083083980
  H        -3.7592574501       12.4674286536       16.6552670147
  C        -1.9402445131       13.4837907712       17.0980565898
  C        -3.0638853103       13.0530732201       14.8027694358
  C        -2.3131207903       13.8446444236       18.5887455461
  H        -1.3194380232       12.6060882950       17.0066683569
  H        -1.5292028343       14.3511785028       16.6513384368
  H        -3.1754560522       13.8407355742       14.1580767724
  H        -2.0834497640       12.6495359169       14.7176881944
  H        -3.6734223442       12.2329958301       14.4191114536
  C        -1.4815540265       12.9969124464       19.6358207350
  H        -3.4014011190       13.7506328065       18.8161574967
  H        -2.2011813021       14.8957836163       18.7845501929
  C        -2.1159756661       13.1995754276       21.0495646884
  H        -1.6382340267       11.9354024117       19.3290790095
  H        -0.3474645473       13.0998362765       19.6109465866
  C        -1.1532667814       12.6181859281       22.0998342190
  H        -3.1646980890       12.7995201514       21.1094428641
  H        -2.1273861733       14.2344786039       21.1445665499
  C        -0.0062029152       13.4649941515       22.5172542798
  H        -1.6746448721       12.5137759793       23.0144926242
  H        -0.9095130192       11.5879158283       21.6806973471
  C         1.1663308038       12.7943478484       23.3220330327
  H         0.3545715435       13.8943138944       21.5933622181
  H        -0.2847096550       14.4310557602       22.9498076432
  C         1.5561950225       11.4990163620       22.6748549555
  C         0.6655729191       12.0377253145       24.5546117768
  C         2.3765163492       13.7059310344       23.5000180665
  C         1.2804868265       10.3452390274       23.4214677844
  C         2.1294679396       11.1470059102       21.4480510797
  C         0.6452849933       10.6984851917       24.6197432726
  C         0.0876342813       12.6428276905       25.6948584328
  H         2.6396720959       14.2390713070       22.5979017025
  H         2.0724324628       14.3876832949       24.2677480435
  C         3.6312352189       13.0111611318       23.9635822847
  S         1.6132858653        8.8583740882       22.6809561092
  C         2.1617502219        9.8341755838       21.2832170824
  H         2.4101353940       11.9127938834       20.7593740636
  C         0.2389766757       10.0124631845       25.7437130527
  H        -0.0261557104       13.7326759159       25.6740037394
  C        -0.2926685562       11.9924105165       26.8379273805
  H         3.9558202963       12.1479215592       23.4089897824
  H         3.3585892658       12.6303776212       24.9597280412
  C         4.8508213367       13.9864498486       24.2833006761
  C         2.6238388154        9.2217915243       19.9578955551
  C        -0.1820240485       10.6247690227       26.9290008717
  H         0.4255510588        8.9401931696       25.7985984601
  C        -0.8123879336       12.3309608236       28.0732146348
  H         5.5205712902       13.5390196958       25.0019033007
  H         4.4529324668       14.9063011770       24.7932116286
  C         5.7219232281       14.3602636796       23.0607096294
  C         2.6887439537        7.8302722407       19.6556144747
  C         2.8453655785       10.1765228471       18.8342585303
  C        -0.6313274689        9.9553522985       28.1546340857
  C        -0.9676448037       11.2155850412       28.8175866728
  S        -1.2601006061       13.8015486921       28.8361322058
  H         6.3282484254       15.2101850284       23.2966705672
  H         5.0728224862       14.7830841337       22.3246433961
  C         6.5444819294       13.2660157399       22.4456154822
  N         2.3764328646        6.8391529227       20.6181877016
  C         2.8084518232        7.3625139133       18.3881518642
  C         3.2144175194        9.7092221051       17.5607010419
  H         2.8893247776       11.2842653070       18.9627435034
  C         0.4661810967        9.1516222144       28.8122502631
  C        -1.8473139234        9.0055482329       27.8478402482
  C        -1.4214667819       11.5694266517       30.0788854933
  C        -1.6274571411       12.9508175225       30.2400270958
  H         7.1765940743       12.7854688766       23.1858775270
  H         5.9872300685       12.4567225164       22.1637796056
  C         7.4413146642       13.6436167161       21.2263126849
  S         2.4325414532        5.3793616157       19.8793169104
  N         2.8645370885        5.9730634073       18.4311576955
  C         3.1296878225        8.2216767336       17.2766591997
  H         3.4748422128       10.3697147348       16.7375437938
  H         0.7945155256        8.3092023120       28.1468255157
  H         0.0451060384        8.7368847241       29.7770195059
  C         1.6565622146        9.9890144771       29.3768108508
  H        -1.5698214050        8.2238458214       27.0723043091
  H        -2.1969670245        8.3747020619       28.5901167777
  C        -3.0739931097        9.8209660182       27.3858715791
  H        -1.5616341291       10.6865960537       30.7957305109
  C        -1.9660513896       13.7249125323       31.4295032963
  H         8.2108508416       12.8976993699       21.1450141607
  H         7.9802284843       14.5703743284       21.3555297017
  C         6.5690838167       13.6104489242       20.0025414969
  C         3.3012060567        7.6428490139       15.9984055678
  H         1.9598762327       10.7512683611       28.6337479137
  H         1.3882633681       10.6203652434       30.2361702709
  C         2.8369054348        9.1710142246       29.7627166361
  H        -2.7191555457       10.4945070404       26.6287967710
  H        -3.3962818558       10.4687287539       28.2360617838
  C        -4.3098977645        8.9499843452       27.1068130968
  C        -2.0482658039       15.1307467107       31.6197887902
  C        -2.0380058620       12.9170995166       32.6151128053
  H         6.0979059760       12.6688453623       19.9388835491
  H         5.8597752441       14.3136685567       20.1479952640
  C         7.3294055608       13.8161823817       18.6249204482
  H         3.1581696290        6.5591843196       16.1229888780
  C         3.6279997394        8.0045379527       14.7185667961
  H         3.0745620865        8.6750215059       28.8034198143
  H         2.4797337477        8.4073675398       30.4252441071
  C         3.9733037469       10.0312528593       30.3523516550
  H        -3.9511808877        8.2545233587       26.4020865502
  H        -4.7249291757        8.4223879411       27.9738184878
  C        -5.4100864433        9.8650266496       26.6434207742
  N        -1.9593664200       16.0197094709       30.5399990121
  C        -2.3041014173       15.7017875646       32.8458162055
  C        -2.3475974003       13.5291614075       33.8477283930
  H        -1.9380002190       11.7995863323       32.5910099407
  H         7.8491694053       14.7464046735       18.5790816223
  H         8.0144511320       13.0257122270       18.3130981982
  H         6.5891831867       13.8746673619       17.8024781136
  S         4.0290452256        9.6129723054       14.2056889250
  C         3.6464142515        7.0078109118       13.6366424107
  H         4.2067223073       10.8823494733       29.7261453978
  H         3.5267975767       10.4593758954       31.2527927643
  C         5.2970145946        9.2776858767       30.6323961029
  H        -4.9743711314       10.5727916574       26.0287815568
  H        -5.9173499985       10.3124864913       27.4593233919
  C        -6.5354427508        9.2728194364       25.7327693607
  S        -1.7640365568       17.5035421548       31.2431235774
  N        -2.3160445957       17.1046466224       32.7485316237
  C        -2.4542162913       14.9308212317       33.9856325684
  H        -2.4973432300       12.9657409004       34.7899031274
  C         4.1835237129        8.9429600989       12.5991996648
  N         3.8527212926        7.6178920768       12.4449116282
  O         3.4137900418        5.7713414321       13.9130989357
  H         5.9537914671        9.8513278382       31.2336664160
  H         5.8962468780        9.0857047710       29.6694031342
  C         5.1992577593        7.9931451328       31.4916762778
  H        -6.1788687730        8.8252684062       24.8006498458
  H        -6.9740661249        8.4571930313       26.3065152736
  C        -7.5058350186       10.3629062327       25.3523665237
  C        -2.7223177466       15.5408861055       35.2147009750
  S         4.4295134560        9.9618593972       11.2203646189
  C         3.9232628361        6.8547661586       11.1770982444
  H         4.9373905148        8.1096073792       32.5456833499
  H         4.2907161034        7.5293153436       31.0166025657
  C         6.4109954538        7.0138042742       31.3666190750
  H        -7.3429436140       10.7145525575       24.3613954942
  H        -7.3868711110       11.1873178875       26.0217847592
  C        -8.9723021528        9.7446006356       25.3198694002
  H        -2.5550739570       16.6146408636       35.1146180150
  C        -3.3539048632       15.1294735329       36.3546907258
  H         4.1996694597        7.4454523210       10.3008192856
  H         4.6811650468        6.1009954866       11.1188137915
  C         2.6106387374        5.9811864122       11.0563010903
  H         6.6812574552        7.0285012383       32.4703210642
  H         7.2120318971        7.5314308168       30.8415762617
  C         6.1347287818        5.5836987658       30.8774033935
  H        -9.5157596593       10.1646274968       24.4932576378
  H        -8.9319937876        8.6772210013       25.2210311043
  C        -9.6604336367       10.1071868352       26.6576236043
  S        -4.0673086516       13.6548404630       36.7175912533
  C        -3.3480969986       16.1346305000       37.4209721817
  H         2.8496617116        4.9121164914       11.1778767606
  H         1.8270146440        6.1718554296       11.7294572951
  H         2.1496758249        6.0251055101       10.0349791234
  H         5.7350884985        5.6511102842       29.8955772682
  H         5.4822466642        5.0210577344       31.5995697394
  H         7.0835892012        5.0002231378       30.7623219393
  H       -10.7338509754       10.1796829382       26.4312481182
  H        -9.4263212773       10.9615969532       27.2145596522
  H        -9.3516585695        9.3158412497       27.3183853895
  C        -4.5143893853       14.4304477265       38.2257103301
  N        -4.0689411261       15.6365962092       38.4160527942
  O        -2.7348057293       17.1689781642       37.4003469575
  S        -5.4453535928       13.7388317851       39.5723454307
  C        -4.2095303450       16.4476573398       39.6127246520
  H        -4.2270024884       17.4853204275       39.4461784701
  H        -5.2671553325       16.2994208077       39.9866790478
  C        -3.2911162124       15.9923859822       40.7101283560
  H        -2.4621793260       15.3863182854       40.5024148061
  H        -2.8566063966       16.8349096853       41.1689442952
  H        -3.9315678825       15.5912860632       41.4456998324
