352
 i =    89300, time =    89300.000, E =        25.0318336202
  H         9.3080423096        6.7821998703       31.0771304093
  C        10.3094748938        6.8386226321       31.5084062510
  H        10.4631064913        7.8871120252       31.8334567030
  C        11.4038167203        6.3949426886       30.5826504938
  C        10.3712115280        6.1113127797       32.8440985429
  C        11.0897958114        5.0820629066       29.7681920901
  H        11.5800630225        7.2260603417       29.8475849627
  H        12.2602346287        6.1538665785       31.2188297011
  H        10.2755804286        5.0240483724       32.7951929329
  H        11.3115627556        6.2644515577       33.3131321276
  H         9.6798819822        6.4274225996       33.5205995777
  C        10.0341060194        5.3488897679       28.7093897390
  H        10.7195083076        4.2253077511       30.3366174543
  H        11.9706987774        4.6592932603       29.2812835119
  C        10.5447861521        5.3818124032       27.2882566598
  H         9.2336001129        4.6769547315       28.8157495845
  H         9.4711609264        6.2817628480       28.9555721476
  C         9.5533212902        4.7906140211       26.3290565689
  H        11.4758437037        4.9331532392       27.1697261309
  H        10.6515773105        6.4085434447       27.1178306428
  C         8.3833184987        5.7821978225       26.0296841857
  H        10.1320478502        4.3407102249       25.5168306074
  H         9.0643997072        3.9359705608       26.7911682897
  C         7.1909888449        5.1402945124       25.2819158928
  H         8.1279720545        6.2758802765       26.9991731156
  H         8.8148378308        6.5572534773       25.4349984730
  C         6.7426918009        3.8583770582       26.0210458867
  C         7.5925624959        4.3874477076       23.9881180554
  C         6.0179128459        6.1591066842       24.8924549168
  C         6.9107867340        2.7354945942       25.1898322409
  C         6.1992843337        3.3989412381       27.2560299884
  C         7.4810145141        3.0253988006       23.9333779096
  C         8.0860187856        4.9895407615       22.8205270830
  H         5.3949165859        5.9546887998       24.0998606951
  H         6.6755109668        6.9950180575       24.6048966580
  C         5.1437078468        6.4912504420       26.0866771038
  S         6.4508052347        1.2191537958       25.9963574362
  C         6.2520596181        2.0315083065       27.4381168085
  H         6.0625399947        4.0925624891       28.0915426344
  C         7.8058218369        2.3712265152       22.8080650613
  H         8.2785301236        6.0247436493       22.9556898131
  C         8.4693317164        4.2626905417       21.7212646059
  H         5.5910725678        6.0026650013       26.9514159225
  H         5.3186009720        7.5467065158       26.3972484598
  C         3.7035315130        5.8917605147       25.9973375027
  C         5.7679829326        1.3455941403       28.6958253866
  C         8.3941724385        2.9347933376       21.6869663512
  H         7.6333019914        1.2960222890       22.7156589758
  C         8.9502522014        4.5830009596       20.4772382944
  H         3.6982210175        4.8193983491       25.7359536881
  H         3.1263449383        6.3558602870       25.2116965787
  C         2.9471599755        6.0505394130       27.3215483285
  C         5.6565633410       -0.0854299430       28.8674660567
  C         5.7942424421        2.1505722981       29.9561693143
  C         8.8020155934        2.1886898044       20.4456461871
  C         9.1351927677        3.4852365720       19.6928296954
  S         9.2323049799        6.1025015536       19.7598344151
  H         2.2895149282        6.8161665453       27.2540553106
  H         3.6521041494        6.3535243046       28.0693989746
  C         2.1914852799        4.8038954935       27.7213633960
  N         6.1261338060       -0.9469910365       27.8932593346
  C         5.4836063753       -0.6397561579       30.0993485509
  C         5.3495848976        1.6392621267       31.1535126293
  H         6.0690525500        3.1385145353       29.9452045329
  C         7.7403366355        1.2706672634       19.7085182179
  C        10.1011321987        1.3667418301       20.5986528087
  C         9.6794746984        3.8750409886       18.4731504164
  C         9.6190930956        5.2120494095       18.3185124610
  H         1.5602475151        4.5881240449       26.8446522043
  H         2.8930181561        4.0193333997       28.0137213583
  C         1.1907092508        4.9524820747       28.8268749191
  S         6.0175976381       -2.4339052588       28.5391393094
  N         5.6075851461       -2.0349818377       30.0412774201
  C         5.1620601907        0.1443704508       31.2842644600
  H         5.4205296567        2.2127885438       32.0885096892
  H         7.4286844893        0.4359369610       20.3022837636
  H         8.3838168747        1.0362355914       18.8636758676
  C         6.4992025811        2.0993078625       19.2613476761
  H        10.4535757359        0.9278407515       19.6857427967
  H         9.9050785429        0.6152191605       21.3273934501
  C        11.1972829858        2.2047830666       21.0962279417
  H         9.6991171808        3.1090694011       17.7020557758
  C         9.9560461285        5.8808562558       16.9491567930
  H         0.6210404837        3.9901717491       28.8475930890
  H         0.5103881146        5.8180909532       28.5653106241
  C         1.9093234505        5.2718866719       30.1918683882
  C         4.8387192714       -0.5981079190       32.4897626832
  H         6.7470605119        2.9520248100       18.6900195784
  H         6.0687209772        2.5195556943       20.1242828248
  C         5.5008733362        1.1463780665       18.6235863326
  H        10.9521229626        2.9169611359       21.8401768864
  H        11.4859862477        2.8408329281       20.2113755262
  C        12.3944578626        1.4554202209       21.7724880057
  C        10.0320732603        7.2552504175       16.7977145915
  C        10.1285266995        5.1804001197       15.7019823597
  H         2.1983801390        6.3262255292       30.4296038729
  H         1.1435967554        5.1053534486       30.9947295775
  C         3.1959637393        4.4240420344       30.4692044233
  H         5.1082993727       -1.6161792965       32.5573317020
  C         4.4927490907       -0.1260441730       33.6872652013
  H         5.1855462648        0.5635797096       19.4674738335
  H         5.9511903216        0.5588049075       17.8521449605
  C         4.4369598241        2.0026196346       18.0059316090
  H        12.7831139135        2.0326044493       22.6220590046
  H        12.0804976895        0.4417008329       22.0780122067
  C        13.5806855585        1.3431103647       20.7282079865
  N         9.9790969912        8.2623202494       17.7934618827
  C        10.2937516880        7.9417939685       15.5790967174
  C        10.3422203547        5.7578050376       14.4817711838
  H        10.1481704659        4.1097215791       15.7420026512
  H         3.3702928732        4.3666945413       31.5625238317
  H         3.1805586632        3.3970340103       30.1161808248
  H         3.9080451257        4.8743266181       29.8666232900
  S         4.0800454601        1.4456717314       34.2244905536
  C         4.5007392984       -1.0927957467       34.8753937397
  H         4.3497023801        2.8758351564       18.5490394089
  H         4.7047135142        2.3973530083       17.0093807296
  C         3.0921365924        1.2405198727       17.9439454099
  H        13.6238161846        2.2259857466       20.0924885296
  H        13.3316500442        0.5331901907       20.1038497448
  C        14.8913503430        1.1660582306       21.4517394030
  S         9.9268727074        9.7465339583       17.1297059979
  N        10.2601245306        9.3284264619       15.6469402801
  C        10.4519442762        7.1788016513       14.4219586871
  H        10.4174085956        5.0712481406       13.5928127555
  C         4.0086473446        0.8494400307       35.9382727040
  N         4.1572931450       -0.4970108286       36.0454705364
  O         4.7319895593       -2.2847440407       34.7636750264
  H         2.2552292459        1.9045967814       17.8994809461
  H         3.0864403759        0.6076964163       18.8368090283
  C         2.9665243576        0.4572646887       16.6684630470
  H        14.7962208971        0.3385263169       22.1632298930
  H        15.5848347602        1.0079245155       20.6481636138
  C        15.4580198891        2.3860782298       22.2961662692
  C        10.7611134402        7.8615961698       13.2036747225
  S         3.4404823677        1.8413612759       37.2512374768
  C         4.1501226088       -1.1002863242       37.3582630382
  H         2.1529071295        0.7458114838       16.0569477882
  H         3.8013561857        0.6818818218       16.0563624900
  C         2.9781309740       -1.0154240207       16.8338654413
  H        14.8152274469        2.5863989195       23.1453334201
  H        15.3865231761        3.3120230655       21.7127127274
  C        16.8564422784        2.0933242542       22.8285351880
  H        10.4313563229        8.8892376075       13.2110711283
  C        11.2998693761        7.5895821826       11.9660487097
  H         3.4069892425       -0.6259101420       38.0280772746
  H         3.8540742321       -2.1148398251       37.1411774196
  C         5.5803767131       -1.0448252761       37.9210608121
  H         3.6406813540       -1.4148193401       17.5631491148
  H         3.2129959963       -1.5154098526       15.9036865012
  C         1.7075482605       -1.5830660839       17.4633105680
  H        17.1759437682        3.0411340045       23.3039351447
  H        16.8671278049        1.2314369528       23.5142174800
  C        17.9863347519        1.9684320306       21.8045810622
  S        11.8542094924        6.0729365199       11.3781970232
  C        11.3137721965        8.6920239919       10.9294356760
  H         5.6042676284       -1.4920689333       38.8971631756
  H         6.1864273059       -1.7258972586       37.3939336102
  H         5.9762967568       -0.0697949715       37.7633243238
  H         0.8102763677       -1.0182080348       17.0987555560
  H         1.7623009124       -1.5054429142       18.5806804915
  H         1.6474257259       -2.6944206360       17.4130493437
  H        17.9157940799        2.6592582053       20.9586532845
  H        18.1232966825        1.0578958642       21.3579898214
  H        19.0019299656        2.1214895535       22.1979173764
  C        11.9398416481        6.8464461949        9.7643070115
  N        11.8642271626        8.2035563256        9.7653282492
  O        10.9452340403        9.8801318331       11.1361253372
  S        12.4247313762        6.0226663706        8.3004953843
  C        11.8854817864        9.0757378384        8.5472440282
  H        12.0765274813       10.0654995208        8.8063957466
  H        12.5799092237        8.7859942723        7.8799621411
  C        10.5174087595        9.0250956652        7.8271397157
  H        10.3232257310       10.0005391529        7.4555889106
  H        10.5335955257        8.2608782372        7.0054915794
  H         9.7223551746        8.8985472859        8.5402610818
  H        -3.7681891012       14.9001903289       16.6133754433
  C        -3.3571038735       13.8712078247       16.3962874435
  H        -4.1973177394       13.1660693448       16.6780058936
  C        -2.4049115446       13.4087984111       17.4783001045
  C        -2.9321717550       13.6664238330       14.9857076232
  C        -2.9173354852       13.6015617798       18.8929638656
  H        -2.1980141585       12.3212117955       17.3461052433
  H        -1.4497610910       13.8932239612       17.2755657008
  H        -2.1418976800       12.9642898390       14.8656130159
  H        -3.8102947549       13.3854837918       14.3430200300
  H        -2.5569936315       14.5808710349       14.4797521336
  C        -1.8709300641       13.7289075565       19.9108786330
  H        -3.4898728705       12.7105281860       19.1670577851
  H        -3.4746357746       14.5068318941       18.9493403396
  C        -2.3506811343       13.7062132435       21.3720764769
  H        -1.1025081273       12.9686009033       19.7497485768
  H        -1.3474833468       14.6474808570       19.6540186976
  C        -1.3482409298       12.9277453311       22.2027871163
  H        -3.3504168136       13.2149838128       21.3730416858
  H        -2.5508502891       14.7599953466       21.6966151364
  C        -0.0929864501       13.7896797429       22.4818006986
  H        -1.7527714762       12.5268612882       23.1057777053
  H        -1.0960111373       12.1075188745       21.5712051255
  C         1.1697635471       13.0494572237       22.9751563399
  H         0.1352631417       14.2598842958       21.4871183555
  H        -0.2265182561       14.6785769129       23.2239051353
  C         1.4793092505       11.7254381920       22.2187984965
  C         0.7403365749       12.2894752363       24.2383016866
  C         2.3889287646       13.9789572497       23.1713509819
  C         1.3896065779       10.6054433006       23.0161533844
  C         1.9394962926       11.3814181410       20.9871922369
  C         0.8104095595       10.9207802085       24.2614810055
  C         0.2561431241       12.8642669487       25.3952623085
  H         2.6050818534       14.4996633584       22.2317554878
  H         1.9541161742       14.6951697061       23.8583878700
  C         3.5830447107       13.3367723054       23.7936536290
  S         1.8592886707        9.1255117913       22.3452174285
  C         2.1473210459       10.0146891311       20.8288941539
  H         1.9925219356       12.1953921686       20.2865576506
  C         0.3467140243       10.2483600530       25.4158765907
  H         0.2962782849       13.9576245957       25.4020704208
  C        -0.0744386982       12.1851094461       26.5555773049
  H         3.6476889647       12.2628352081       23.4425422536
  H         3.2640361187       13.2131113857       24.7979408679
  C         4.9460693115       14.1264323409       23.6386165083
  C         2.5730416885        9.3494127603       19.5528623811
  C        -0.1563801989       10.8640421431       26.5791266129
  H         0.3917248293        9.1578784917       25.4501978817
  C        -0.4969063369       12.4955224080       27.8240844468
  H         5.7618535010       13.8947478495       24.3292521610
  H         4.6951652655       15.1327633869       23.6863044526
  C         5.5182130509       14.1384071700       22.1632695675
  C         2.6346650245        7.9432081067       19.3106337476
  C         2.9513014334       10.2068560190       18.4536936518
  C        -0.5180878856       10.0547561792       27.7644263995
  C        -0.8059346349       11.3348200113       28.5474250717
  S        -0.7156120575       13.9492977590       28.6394501332
  H         6.3305298063       14.8592981583       22.0264082521
  H         4.7187734277       14.3009044862       21.4982581636
  C         6.0220758278       12.7205178534       21.8311261706
  N         2.4298802728        6.9355464407       20.2592803283
  C         2.7683437968        7.4368361823       18.0330134321
  C         3.1177546847        9.7844287132       17.1075180841
  H         3.1097638133       11.2552982778       18.6438953390
  C         0.7259740945        9.3391675883       28.3600908284
  C        -1.7640015217        9.1752082327       27.6122708665
  C        -1.4311938109       11.6697201775       29.8059045158
  C        -1.3576921548       13.0373299392       30.0661534431
  H         6.6444446349       12.4691947954       22.6927967885
  H         5.1555017730       12.0332490275       21.8214464821
  C         6.7475801773       12.6504446274       20.4534695317
  S         2.3365289966        5.4881326731       19.5266731065
  N         2.5423719047        6.0369721710       18.0431981723
  C         2.9690578352        8.2683574630       16.8920503969
  H         3.4164865313       10.4549634207       16.3263842531
  H         0.9462843194        8.4397282916       27.7626906876
  H         0.4164151709        8.9359119271       29.3530421355
  C         1.9915892607       10.1805241734       28.7758383332
  H        -1.4674982042        8.4214885998       26.8566901831
  H        -2.0235333259        8.5839754354       28.5182152657
  C        -3.0624351178        9.9574282019       27.1526501847
  H        -1.8387316924       10.9223880115       30.5274018805
  C        -1.6870393651       13.6857252185       31.3287009704
  H         6.9044722441       11.6030681971       20.2601521926
  H         7.7491691805       13.0428877457       20.4126586748
  C         5.9912923904       13.1856492057       19.2220106008
  C         3.1764742538        7.6077214714       15.5845085630
  H         2.3549492541       10.6070620555       27.8573994500
  H         1.8010922624       10.9856276030       29.4630911460
  C         3.0039007900        9.2973311664       29.3978310783
  H        -2.8251637606       10.4556586416       26.2414045931
  H        -3.2125450692       10.7308828151       27.8379766184
  C        -4.2210547531        8.9837577739       26.9836686594
  C        -1.8518545447       15.1052609511       31.4991488377
  C        -2.0482827824       12.9069898356       32.5607508180
  H         4.9278416976       12.8006739036       19.2222978168
  H         5.7719102899       14.2221574237       19.4553930534
  C         6.7025216381       13.0334016535       17.8636681674
  H         3.1136850222        6.5640377947       15.5641060907
  C         3.5238890723        7.9842795557       14.3198895412
  H         3.2523754480        8.5024718948       28.7459428616
  H         2.4600038873        8.9538825338       30.3302458314
  C         4.2171710114       10.1147662876       29.7902185294
  H        -3.9023307282        8.4247003809       26.1411088962
  H        -4.2096875871        8.3790836266       27.8923073997
  C        -5.6411441382        9.6617709502       26.7643157680
  N        -1.6106433062       16.0154032439       30.4969520122
  C        -2.1199627289       15.7566617335       32.6942159152
  C        -2.2814277310       13.5463794247       33.7496168943
  H        -2.0214602762       11.8158424360       32.5206689810
  H         6.2330987457       12.2045749405       17.2031249458
  H         6.8423874325       14.0198484450       17.3349307103
  H         7.6623292138       12.6628718521       18.0515799852
  S         4.0785739395        9.5610376259       13.8455631370
  C         3.3993444241        6.9717130039       13.2515800975
  H         4.7890529317       10.4392270284       28.9796645099
  H         3.8059923916       11.0216767640       30.2470267490
  C         5.2049806145        9.4972139289       30.8598377308
  H        -5.6587932970       10.5656649823       27.2762327585
  H        -6.3314475254        9.0997257094       27.3004337746
  C        -6.1613566488        9.8495077805       25.3280587972
  S        -1.8160424860       17.4944622509       31.0390151974
  N        -2.2457184987       17.1282611401       32.5851192457
  C        -2.2704343641       15.0613846826       33.8501078736
  H        -2.4277501370       13.0189094428       34.6283333743
  C         4.2017891280        8.8311846834       12.2820633443
  N         3.8885743294        7.4602706999       12.1652776518
  O         3.0615958270        5.8072039239       13.4418612297
  H         4.5065134111        8.8896419571       31.3985425444
  H         5.4493348940       10.2939299457       31.5172760013
  C         6.3727044802        8.6388465161       30.2958491485
  H        -5.5686932392       10.5832868368       24.8711382414
  H        -6.0756514907        8.9938767510       24.6808488063
  C        -7.6102429501       10.3144107149       25.2936842758
  C        -2.6211285867       15.8427580896       34.9642266185
  S         4.8837667604        9.5930373324       10.8979354309
  C         3.9367153360        6.6447642917       10.9613463213
  H         6.7823607300        9.1006408831       29.3955547283
  H         7.1515306786        8.7267771876       31.0305992422
  C         6.0610086243        7.1795350388       30.1492658289
  H        -7.9257713409       10.1956570163       24.2877643287
  H        -7.6753112650       11.3225489953       25.5517801322
  C        -8.6554782835        9.4584588917       26.0028989323
  H        -2.2972833360       16.8504926496       34.8987474737
  C        -3.2649454410       15.5546301349       36.1787125234
  H         4.6406058910        7.1679149840       10.2806300254
  H         4.3939834922        5.6747534395       11.1216369488
  C         2.5421666249        6.5061478835       10.2459569966
  H         6.8453309035        6.6207656009       29.7336738148
  H         5.2365514741        7.1417021266       29.4246861932
  C         5.6288640282        6.6338754838       31.4473373552
  H        -8.5875514682        8.4439719145       25.6538670303
  H        -8.3869524273        9.5352627983       27.0532514452
  C       -10.0974443125       10.0438669537       25.7979791650
  S        -3.8800779465       13.9538540437       36.6008868440
  C        -3.5019681746       16.5984626549       37.2114311919
  H         2.3266239502        5.6006227815        9.7336090837
  H         1.7788611651        6.8969675497       10.8498988565
  H         2.5726896291        7.2993132460        9.4448714802
  H         4.4855893765        6.7247766222       31.5165314672
  H         6.1800306034        7.0901141720       32.2868668180
  H         5.9904928762        5.6038719134       31.4679975721
  H       -10.2743049164       10.9556916302       26.3760989219
  H       -10.8051272890        9.2862595305       26.1731310475
  H       -10.1304995956       10.1272062530       24.6928163507
  C        -4.4237808063       14.7145506003       38.0919719550
  N        -4.1885661124       16.0365369654       38.2458971068
  O        -3.2372815784       17.7864327680       37.1634851901
  S        -5.3227341494       13.9823081432       39.4188322099
  C        -4.3522810522       16.7932421509       39.4556017656
  H        -4.6278505735       17.7749044236       39.0624390498
  H        -5.1319039309       16.5005698770       40.1380664038
  C        -3.0057343015       16.9008430382       40.1882674252
  H        -3.1974990633       17.6775916976       40.9311402296
  H        -2.7830123169       16.0295592393       40.6946040740
  H        -2.2177549040       17.3241520204       39.6195321917
