352
 i =     7300, time =     7300.000, E =        25.7366344892
  H        12.1476256580        7.3621628133       32.8844130694
  C        11.7483704415        6.3918339345       32.4317133975
  H        12.7769317990        6.0827150308       32.2121619472
  C        10.8686138087        6.5955269685       31.1769687846
  C        11.1954538957        5.6341755594       33.6019931115
  C        11.0156074791        5.5094962128       30.1466379367
  H         9.8247897747        6.7969189468       31.3844376009
  H        11.1864914999        7.6236068321       30.8822163306
  H        10.4834060913        4.8561487566       33.4381427164
  H        11.9684957845        5.2501380655       34.2555198908
  H        10.6963077600        6.3497621816       34.3045999327
  C         9.9541504526        5.4710068472       29.0436979340
  H        11.0030324700        4.5709893777       30.6890415467
  H        11.9561688969        5.6248759610       29.5801473726
  C        10.4945002507        5.4433089512       27.6580229641
  H         9.4403957425        4.5199352927       29.1624209619
  H         9.1869784480        6.1595636707       29.1785802248
  C         9.6486180943        4.9213439384       26.4982607790
  H        11.4196890794        4.9056459257       27.5544506485
  H        10.8807303661        6.4001729642       27.4268476035
  C         8.4496998712        5.7582289334       26.1838025742
  H        10.2767828778        4.8658383947       25.5982085710
  H         9.3246696236        3.8906188573       26.6602448308
  C         7.2149138986        5.1103014940       25.4443625996
  H         7.9937357100        6.2212609990       27.0414016300
  H         8.7825350503        6.5928958799       25.5891039066
  C         6.9086145860        3.7854008330       26.1466598375
  C         7.5547141762        4.4493292275       24.1659163727
  C         5.9909798907        6.1149870457       25.2752395187
  C         7.1204180031        2.7086363506       25.2936476798
  C         6.5758802859        3.3903792141       27.4577750519
  C         7.5317822115        3.0765527114       24.0526931340
  C         8.0570970987        5.1034003509       23.0715880813
  H         6.1120821534        6.9478048023       24.5287536191
  H         5.7755040826        6.7715093855       26.1585664339
  C         4.7352922908        5.3419332110       24.9168087576
  S         6.7044897370        1.1634625522       26.0096240496
  C         6.4715419640        2.0104550887       27.5501939902
  H         6.2470495528        4.0871158274       28.2192890764
  C         7.7964092322        2.4633399823       22.8629799597
  H         8.3006678347        6.1422579618       23.1121731500
  C         8.2996458008        4.4523095570       21.8504470952
  H         4.8767322786        4.6600739626       24.0970984888
  H         4.4278949255        4.6683588722       25.7655341598
  C         3.4522412942        6.2174068074       24.5147742672
  C         6.1469381950        1.2662371607       28.7926553528
  C         8.3468470327        3.0934575795       21.7484385378
  H         7.6782536826        1.4508522210       22.8252799616
  C         8.8054022393        4.8537300611       20.6225462182
  H         2.8464478760        5.7971425412       23.6796834708
  H         3.9324091580        7.1784585323       24.1370682717
  C         2.6085808469        6.5254505679       25.7176147221
  C         6.2114537363       -0.1519118762       28.9810658200
  C         5.7927901298        2.0720075137       29.9150804524
  C         8.8246268533        2.3614517429       20.5259904625
  C         9.0901060406        3.7374889365       19.7689294131
  S         9.0463767931        6.3758758616       19.7692929701
  H         1.8948444022        7.2511886253       25.4724698945
  H         3.2937897890        7.1193400554       26.3492583006
  C         1.8579601628        5.2974306822       26.4030331358
  N         6.6296474030       -1.1415160790       27.9989122199
  C         5.9037183365       -0.7551835560       30.1871355891
  C         5.5095727527        1.4601244955       31.1372635539
  H         5.5102856113        3.1465499871       29.8667005713
  C         7.7779397768        1.5453869424       19.7804253750
  C        10.1298610189        1.6274385382       20.8159341710
  C         9.6119489057        4.1099143469       18.5178492742
  C         9.5862588811        5.4969178060       18.3388575668
  H         1.2159442181        4.8108624320       25.6300146015
  H         2.5546573830        4.4216836117       26.6767086751
  C         1.1245831912        5.5930290430       27.7012646554
  S         6.4832584296       -2.6232240568       28.6742597350
  N         5.9050620728       -2.1622614567       30.1394714000
  C         5.6286884399        0.0299634546       31.3608112971
  H         5.1585184925        2.1426438925       31.9252495966
  H         7.6240024447        0.5475306920       20.2345790562
  H         8.1018702947        1.4146588473       18.8028045869
  C         6.3819984538        2.1999378875       19.6930203551
  H        10.4274779218        0.9964050586       20.0063644413
  H         9.8696039272        0.9075360152       21.6078693460
  C        11.3080621371        2.4711410219       21.2692224994
  H         9.9495103313        3.3784528979       17.8211009598
  C         9.9965578544        6.2802378290       17.1270680620
  H         0.4432141797        4.7626565078       27.7194984424
  H         0.5015080832        6.4893120075       27.7004311736
  C         2.0369995472        5.5128628779       28.8520423924
  C         5.3759583784       -0.6657989389       32.5737458823
  H         6.4656373785        3.0086887030       18.9660046137
  H         6.0757559141        2.4761024821       20.6518800644
  C         5.3034093766        1.2589647889       19.0955518901
  H        11.0356008818        3.1521222587       22.1132964039
  H        11.7162359938        3.1550110263       20.4987127891
  C        12.5193383875        1.5997383195       21.7240184440
  C        10.0962484108        7.6949638392       17.0365169984
  C        10.2171078118        5.5046148090       15.9161141202
  H         2.7141379487        4.6095608799       28.8074501058
  H         2.6487340079        6.4649528451       28.7870878643
  C         1.2802612996        5.7300092472       30.1194901189
  H         5.7565956958       -1.6381906610       32.6428298154
  C         4.9346167932       -0.1950538402       33.8349306831
  H         5.3982520082        0.2848366456       19.6296674814
  H         5.6207589176        1.0831406268       18.0598186130
  C         3.8552851515        1.7241630385       19.0652488998
  H        12.0641346952        1.0274865089       22.5458959578
  H        12.8036317509        0.9174564023       20.9434480657
  C        13.6722712382        2.4656066147       22.2179504400
  N         9.7880631525        8.6319018901       18.0750563537
  C        10.4961247528        8.2952592251       15.8804292420
  C        10.4696218406        6.2210951107       14.7840739168
  H        10.0677796581        4.4793251178       15.8786213155
  H         0.7930012866        4.8543955999       30.4212956008
  H         1.9376655866        6.1512941344       30.9658241983
  H         0.3701961030        6.4308576396       29.9399738917
  S         4.5054358932        1.3719683946       34.3133142209
  C         4.7555054023       -1.1938631990       34.9321800333
  H         3.6371370820        2.3852156353       19.8572868355
  H         3.6852210345        2.3095611904       18.1373649159
  C         2.7810862933        0.7175689190       19.1314603690
  H        13.2773600870        2.8447493695       23.1457884028
  H        13.8671510963        3.3581600667       21.5493151545
  C        15.0767732168        1.7512057254       22.2500614749
  S        10.1249237155       10.1292026619       17.4633839165
  N        10.5860178685        9.6926071898       15.9672899155
  C        10.8015397776        7.6555484954       14.7154646134
  H        10.7321953457        5.5541118760       13.9149808563
  C         4.1429380528        0.6984798022       35.9428773934
  N         4.4221758973       -0.5885121015       36.0816293009
  O         5.0891353059       -2.3652442225       34.7855388826
  H         1.7945651907        1.1939345575       19.1731332792
  H         2.9400707932        0.1008479604       20.0578249552
  C         2.7629788022       -0.2062198121       17.9071292550
  H        15.0807906546        0.8924775798       22.9421163252
  H        15.3139649175        1.4650042318       21.2449496699
  C        16.1662481382        2.6535503701       22.8911025856
  C        11.2114647647        8.3106638689       13.5506543237
  S         3.7876380183        1.6754915502       37.3975663648
  C         4.4320168546       -1.2371113274       37.3813419771
  H         1.6785918230       -0.4173193044       17.7363631040
  H         2.9083546844        0.4692045324       17.0268497228
  C         3.6902264899       -1.3706110822       17.9833343032
  H        15.8044263687        3.1864161368       23.8079322530
  H        16.3973435014        3.4999623364       22.2216266207
  C        17.4129840547        1.8339544390       23.0807070243
  H        11.0949547712        9.2695456773       13.4728730816
  C        11.8037238404        7.8793814551       12.3828036373
  H         3.9188281878       -0.7965990016       38.1668216187
  H         3.8876335779       -2.2250540163       37.3702881099
  C         5.9208542937       -1.4333391421       37.8866174332
  H         3.7104232115       -1.8364273080       18.9642229184
  H         4.6436820683       -1.0823019615       17.5424857578
  C         3.0598275478       -2.4368059445       16.9097431495
  H        18.1063729714        2.2595618312       23.8299353759
  H        17.2948460482        0.7532882541       23.4221451690
  C        18.1591861676        1.8541237165       21.7436050628
  S        12.3213470933        6.2957214121       11.9898074559
  C        11.8393370017        8.8743401786       11.3094425610
  H         6.3585134378       -0.5314861735       38.3085571348
  H         5.9345672846       -2.1294922265       38.6352602419
  H         6.6025616401       -1.7828379247       37.1341644541
  H         2.2790947328       -3.0004488158       17.3565374150
  H         3.8144488130       -3.0752273349       16.4814272325
  H         2.6163515660       -1.8723349340       16.1022519890
  H        19.2585834240        1.5476134069       21.8863575453
  H        18.1491182370        2.7688176565       21.1117562464
  H        17.6202969912        1.0676040257       21.2522388630
  C        12.7627039818        6.9905224681       10.4035302693
  N        12.4522642388        8.3445308365       10.2492232360
  O        11.4451135274       10.0336923218       11.3337946357
  S        13.4614067989        6.0891846864        8.9785404252
  C        12.4651468569        9.0155749434        8.9617242395
  H        12.6268422929       10.0895105052        9.1170105770
  H        13.3950432126        8.7501199690        8.4319931988
  C        11.2820751991        8.6949780595        8.1308605293
  H        11.4211750386        7.7748986795        7.5869181375
  H        10.2732074068        8.5863823414        8.5889234397
  H        11.0584216510        9.4207499671        7.4461371835
  H        -2.7005983448       15.2673704791       15.5855056703
  C        -2.5540680806       14.2801595770       16.0088358661
  H        -3.6317528668       14.0850428149       16.3155180004
  C        -1.6867356599       14.1946297051       17.2102982685
  C        -2.1629702684       13.3987243653       14.8510126015
  C        -2.4478415935       13.9872575076       18.4972542985
  H        -0.8455036207       13.5551052848       17.1502458758
  H        -1.1677353975       15.1661271996       17.2876741443
  H        -2.3498558839       12.2705289631       15.0118997833
  H        -2.8164934476       13.5376040657       14.0131626655
  H        -1.0986386239       13.7398742571       14.5813703617
  C        -1.4146950183       13.8213001017       19.6164526356
  H        -3.0008942294       13.1031838099       18.2597925479
  H        -3.1374102707       14.8294506085       18.6010882869
  C        -2.0699702777       13.6559890521       20.9638593187
  H        -0.7752683622       13.0336631329       19.4059365023
  H        -0.8550883901       14.7403977443       19.7272019166
  C        -1.1450605516       12.9384221023       21.9869643145
  H        -2.9241077647       13.0371896370       20.7903826403
  H        -2.4365915227       14.5928814660       21.4394049936
  C         0.0256111695       13.7752382780       22.5046333405
  H        -1.6535889227       12.5687805326       22.8802913372
  H        -0.7272476070       12.1313033708       21.4440251188
  C         1.1429764050       13.1225570981       23.4092619629
  H         0.4328536171       14.2254892115       21.6592962994
  H        -0.4435022609       14.5484385180       23.1445682598
  C         1.5289718525       11.7668314632       22.7603573554
  C         0.6766846907       12.4524843377       24.6611177623
  C         2.4182308451       14.0129193358       23.7367399960
  C         1.2589669970       10.7032386046       23.6198072487
  C         1.9432792839       11.3461568683       21.4794516646
  C         0.7632487338       11.0933262923       24.8338040589
  C         0.1570624186       13.0892550844       25.7737476552
  H         2.7083405557       14.3250061538       22.7642393829
  H         2.3549552608       15.0101080125       24.2686861654
  C         3.5430770739       13.1750910042       24.3150391932
  S         1.6967991709        9.2111699837       22.9234925058
  C         2.2086841298        9.9947720332       21.4480656527
  H         2.1544402447       12.1296947061       20.7682781200
  C         0.3509463381       10.5456954031       25.9821540566
  H         0.1282146615       14.2000084612       25.5108101465
  C        -0.1034451973       12.5529518266       27.0134397671
  H         3.8103682607       12.3182722506       23.7405896141
  H         3.1684452673       12.8458010841       25.2816521929
  C         4.8938767897       13.9221560382       24.4022533359
  C         2.4616978759        9.2907304456       20.1231521545
  C        -0.1316233640       11.2173402490       27.0871136838
  H         0.2909316524        9.4305756380       26.0165819923
  C        -0.4674114649       12.9752424424       28.2631400901
  H         5.4033660314       13.5425933600       25.2860112963
  H         4.7548264843       14.9509101574       24.6960975468
  C         5.7930826218       14.0120525054       23.2192152269
  C         2.3174566644        7.9514229396       19.8420896937
  C         3.0258781300       10.0916683974       19.0069692856
  C        -0.4932353217       10.4490775663       28.3443921795
  C        -0.7294040170       11.8383809635       29.0609268717
  S        -0.5563694668       14.4638079653       29.0717544696
  H         6.6916647972       14.6349574297       23.5378293081
  H         5.3405004452       14.5766693621       22.4445184449
  C         6.2755434511       12.6472026128       22.6843149342
  N         1.8304140007        6.9981945207       20.7556718712
  C         2.6326789270        7.3716717686       18.5605263001
  C         3.3560496810        9.5346200462       17.7432719526
  H         3.3884382929       11.0893344041       19.2501140185
  C         0.5840751380        9.6294869183       29.0212629517
  C        -1.8332384492        9.6510455901       28.1947447398
  C        -1.0908598730       12.2709293555       30.3568237415
  C        -1.0634505690       13.6150242856       30.4922710038
  H         6.9342206045       12.1844163485       23.4380603612
  H         5.5758987310       11.8785717915       22.3710667387
  C         7.1018440728       12.7727688793       21.4907185992
  S         1.8661917126        5.5358846608       20.1078629491
  N         2.2884636469        5.9918660954       18.5712232005
  C         3.1215417211        8.1148545035       17.4945985656
  H         3.9020074680       10.1632416479       17.0559094750
  H         1.1361246825        8.9618919723       28.3555656181
  H         0.1335220441        9.0344856582       29.8494036875
  C         1.6266881602       10.4813390336       29.6885082851
  H        -1.6644911528        8.7436588045       27.5501907378
  H        -2.2730283392        9.3760623795       29.1848634963
  C        -2.9240182009       10.5358432091       27.6415332496
  H        -1.3233026530       11.4930953558       31.0399999436
  C        -1.4398707415       14.3139017275       31.7595745230
  H         7.5727178007       11.7848278311       21.3539464375
  H         7.8580372543       13.5572891629       21.5590786468
  C         6.3296763120       13.1066397021       20.1946925988
  C         3.3222323241        7.5082645502       16.1945806072
  H         2.2898785673       10.9103241546       28.8975360938
  H         1.3565690811       11.3815372396       30.3322941926
  C         2.6069276874        9.6324313851       30.4211020547
  H        -2.6840677489       11.0651504365       26.6866525060
  H        -3.1771250504       11.3424209224       28.3135576812
  C        -4.2291139843        9.7987394701       27.3484254130
  C        -1.5075836821       15.7057971127       31.9503522412
  C        -1.7513504862       13.5185525541       33.0151804346
  H         5.6648358953       12.4064001635       19.8872123720
  H         5.7955663541       14.0414711499       20.4142327302
  C         7.2734526742       13.2836751855       18.9917056140
  H         3.0443613187        6.4458285697       16.2123398284
  C         3.7443585444        7.9631889304       14.9795374678
  H         2.8512313780        8.7384754942       29.8051694896
  H         2.1309219321        9.2029629855       31.2927673149
  C         3.7431827038       10.5663308331       30.8702428920
  H        -3.9604627956        8.9972963310       26.6609377388
  H        -4.5975481394        9.3094945492       28.1986685085
  C        -5.3315973402       10.5447714689       26.7573131405
  N        -1.2966956562       16.7299305741       30.9510005574
  C        -1.8337489089       16.3447711028       33.1275299487
  C        -2.1474788698       14.1336196561       34.2431321657
  H        -1.9436089548       12.4764121251       32.8686247414
  H         6.7114736797       13.5428240101       18.0431889377
  H         7.9186096529       14.0756330964       19.2314633993
  H         7.9312552951       12.4261660364       18.8926008170
  S         4.1989805460        9.5949612664       14.5601937257
  C         3.8415635247        7.0066412384       13.9123657421
  H         3.8761603709       11.3224319107       30.0752168208
  H         3.4918704703       11.0098669725       31.7908833990
  C         5.0848695947        9.8728129326       31.1737279359
  H        -5.4080511884       10.2194859320       25.6944806548
  H        -5.1250420104       11.5709117593       26.7924730598
  C        -6.7165188245       10.1659270458       27.3055119694
  S        -1.5360505643       18.2178825115       31.5989632125
  N        -1.9359161791       17.7350314336       33.1128114859
  C        -2.0320087565       15.6190335391       34.3306081679
  H        -2.5399601951       13.4932510486       35.0436218075
  C         4.3941126514        8.9789768475       12.9412698619
  N         4.2977320445        7.6034224609       12.8091526758
  O         3.5974659018        5.8303512667       14.0266841673
  H         5.7864733865       10.5812088627       31.5851638493
  H         5.5177172262        9.5155692909       30.3090377949
  C         4.9386861100        8.7214848494       32.0764015474
  H        -6.8466708387        9.1252314634       27.5218842355
  H        -6.6919855277       10.6464202760       28.2603584195
  C        -7.9549321127       10.6175313365       26.5157818244
  C        -2.4469867321       16.3201774541       35.5073012442
  S         4.8635797173        9.9096510731       11.5663942925
  C         4.4910662515        6.9133210452       11.5451740913
  H         5.6448148604        8.8126792589       32.8652639989
  H         3.8977621525        8.7240119732       32.3792177478
  C         5.0883985650        7.3819962082       31.3740800749
  H        -7.6723243926       11.3520205088       25.7837576313
  H        -8.6326959404       11.1634267410       27.2283397818
  C        -8.4966123736        9.4689843627       25.6809999105
  H        -2.0755224870       17.2860192853       35.6519967821
  C        -3.1531552830       16.0226309407       36.6704430662
  H         5.3442381088        7.3263078667       10.9323732497
  H         4.8608588773        5.9205932615       11.9196373480
  C         3.1501002671        6.7945425093       10.7702390066
  H         4.4892109226        7.4179335069       30.4408915415
  H         4.6994860869        6.7661089024       32.0971745862
  C         6.4952981329        6.8849381716       31.0202109059
  H        -7.6032159236        9.1892616218       25.0401109259
  H        -8.8120692992        8.6807408874       26.4526440861
  C        -9.6038490862        9.9465752285       24.6954015356
  S        -3.8282566640       14.4492996975       37.0389025184
  C        -3.4300092571       17.1185973330       37.6315534852
  H         3.1750198291        6.9432835391        9.6707414527
  H         2.7286745617        5.8124964480       10.9003627909
  H         2.2839066724        7.2464647770       11.2272083545
  H         6.9099331044        6.2213152236       31.8051500308
  H         7.1454875424        7.7391476604       30.7681117823
  H         6.3776831493        6.2270829811       30.1768092686
  H       -10.4049143164        9.1681286618       24.6628236292
  H        -9.2606751563       10.1491935399       23.7278436270
  H       -10.0919711931       10.7823998793       25.1339720911
  C        -4.2809017036       15.2372704803       38.6351682055
  N        -3.9942326492       16.5497917398       38.7437440230
  O        -2.9897102302       18.2394585729       37.4742766751
  S        -4.8462718506       14.4054974441       40.0635211597
  C        -4.1248385306       17.3813783681       39.9621345344
  H        -4.2795154841       18.4165391241       39.6880995121
  H        -4.8838947210       17.0468769975       40.7272744140
  C        -2.7635833402       17.3166421240       40.6126394087
  H        -2.1287649522       16.5679977298       40.0801824181
  H        -2.1902322769       18.2528714456       40.4630644712
  H        -2.8118455500       17.1347031371       41.6576084114
