352
 i =    10300, time =    10300.000, E =        24.1691499437
  H        11.5155363453        7.1873462130       32.4940643066
  C        11.7775404482        6.1460534502       32.3926281890
  H        12.8395997420        6.1133158167       32.1220669943
  C        10.7647289661        5.5586991003       31.3264359584
  C        11.6972723329        5.7474144610       33.8639625713
  C        11.2397400056        5.8745539949       29.9040999870
  H        10.7613082746        4.4134251741       31.4537071848
  H         9.7283149360        5.8077746613       31.4924431476
  H        11.0798229382        4.8698764276       34.0841187224
  H        12.6561338859        5.4707631648       34.2556268085
  H        11.3828826617        6.5366705675       34.4710395733
  C        10.4472613185        5.1152874772       28.8212933066
  H        12.2946464753        5.7073169347       29.9584097599
  H        10.9240016848        6.9265212128       29.7286503678
  C        10.5334561436        5.6868184655       27.4219029033
  H        10.9444946888        4.1076556076       28.7950433162
  H         9.4197696001        4.9193760080       29.0025956883
  C         9.5124867065        5.0576573282       26.4844441366
  H        11.4849991189        5.4161874579       26.9556159779
  H        10.4863001757        6.7874988848       27.4280610380
  C         8.2326302059        5.8472605558       26.4315952611
  H         9.9302121100        5.0303763021       25.4891753345
  H         9.2573751718        4.0267868998       26.7854063458
  C         7.1660766660        5.1186214985       25.5343086229
  H         7.8384680483        6.2083144563       27.3941869131
  H         8.4828555188        6.7962622525       25.9272448474
  C         6.8193240478        3.7277763534       26.1864073850
  C         7.6825481525        4.3271488426       24.3370461017
  C         5.8675752289        6.0533842595       25.4495813884
  C         7.2100875448        2.6197050730       25.4314433610
  C         6.3073373477        3.2941679851       27.4145602438
  C         7.8131283248        2.9548922653       24.2456432299
  C         8.1504583889        5.0585932141       23.2236157177
  H         6.1450716346        6.9212194624       24.8652369038
  H         5.6669729023        6.3924721552       26.4210065691
  C         4.6423024255        5.3149174518       24.9622999187
  S         6.9033715713        1.1200761120       26.2573923220
  C         6.1643690637        1.9497236011       27.6164578512
  H         6.1111301957        4.0727538502       28.1155625841
  C         8.3609268569        2.3673879542       23.1640374549
  H         8.1271462723        6.1111301331       23.2939859417
  C         8.5160459041        4.4681065815       22.0584388823
  H         4.6429709902        5.0781374310       23.8521575788
  H         4.5812490937        4.3210896125       25.4674312768
  C         3.3382507222        6.1564842591       25.1417094603
  C         5.7130458293        1.2780644039       28.8705890652
  C         8.7198260950        3.1078639621       22.0237410074
  H         8.4129358223        1.3154034741       23.0760066781
  C         8.9747968341        4.8228474856       20.7770448410
  H         2.5252688226        5.9189643339       24.4911265714
  H         3.5483951471        7.2308576331       24.9183192513
  C         2.7509935460        6.2619918045       26.5333801177
  C         5.6098028117       -0.1363633346       29.2072430496
  C         5.2631848416        2.1108289699       30.0045186601
  C         9.2401299729        2.3875609306       20.7925512511
  C         9.2838821512        3.6687684807       20.0526288163
  S         9.3159812624        6.2636248534       19.9614673180
  H         2.0620999126        7.0186112339       26.6676734077
  H         3.5052073366        6.6391671077       27.2236342474
  C         2.1362309744        4.9748314690       27.0830455274
  N         5.8944881609       -1.1695287366       28.2949816569
  C         5.3879505210       -0.6425446561       30.4926464607
  C         4.9427822163        1.5931560209       31.2526679558
  H         5.1733700564        3.2161264497       29.8393436308
  C         8.0519349749        1.5051239373       20.3441868244
  C        10.5866887801        1.6088681498       20.9655918509
  C         9.4834688415        3.9889392626       18.6934563487
  C         9.4920932490        5.3683038380       18.4927280216
  H         1.5418014936        4.4916572966       26.2802203337
  H         2.8898245734        4.2369551612       27.4874055176
  C         1.2297516396        5.1741664608       28.3106147442
  S         6.0169818535       -2.6021740258       29.0943352035
  N         5.5483263948       -2.0681310890       30.5544154151
  C         5.1397430826        0.1848079218       31.5982059424
  H         4.6037741550        2.2501971998       32.0272643699
  H         7.9807051501        0.5697126777       20.9109188247
  H         8.4282494698        1.3233920822       19.3628353866
  C         6.6615543370        2.2532005758       20.2536810078
  H        10.7799575277        1.0943119258       20.0136376439
  H        10.5447306962        0.9075705763       21.7723551680
  C        11.7618457156        2.5564057838       21.3494922360
  H         9.7944066135        3.1795610441       17.9996524439
  C         9.8961859778        6.1247057338       17.2150774672
  H         0.8051609035        4.1469456632       28.5468283916
  H         0.4689353095        5.8805688298       27.9798819816
  C         1.8814332675        5.6229806162       29.6101112908
  C         4.9304736772       -0.3993068699       32.8890397796
  H         6.6891978291        3.2908047261       19.8790239151
  H         6.1969571704        2.4695640313       21.1915494188
  C         5.6412030940        1.5648901573       19.4220231147
  H        11.5153089957        3.0235837886       22.3281911785
  H        12.0135008273        3.2505548646       20.6455326031
  C        12.9829972527        1.6321895976       21.6077754649
  C        10.0411194268        7.5577788816       17.0597814067
  C        10.0417377940        5.3946545891       15.9430051833
  H         2.8021294863        5.0136426821       29.8756007264
  H         2.2158828664        6.7735377658       29.5552434260
  C         0.9636253134        5.5223820132       30.8909120269
  H         5.1026169340       -1.4850848170       32.8988486211
  C         4.6284916490        0.0129415324       34.1394986813
  H         5.1723164955        0.8469953431       20.0761598250
  H         6.0817176404        0.9122427510       18.7287149053
  C         4.4848430892        2.4222804684       18.7798824432
  H        12.9264055025        1.2060107070       22.5323413467
  H        12.8906097178        0.8094460011       20.9786614025
  C        14.3924695839        2.2434694453       21.4569355101
  N         9.8804840522        8.4232673688       18.1418980089
  C        10.3385186562        8.2004211142       15.8861993386
  C        10.2662427296        6.0320153855       14.6885274773
  H        10.1529322164        4.3740527306       15.9669778443
  H         0.2739095858        6.3359986574       30.8672950674
  H         0.4981398743        4.5762541619       30.8369969427
  H         1.6127969466        5.4781838729       31.6884108792
  S         4.4306564738        1.5934344774       34.7304371939
  C         4.6537043474       -1.0134814038       35.1835814026
  H         4.1486328087        3.3980043619       19.2580362778
  H         4.9190834426        2.6996933417       17.8618667120
  C         3.1893550744        1.4751852854       18.8037714177
  H        14.3618355389        3.2102954808       20.9450899053
  H        15.1503995067        1.7006068392       20.8387016139
  C        14.8860274111        2.5498441847       22.8780205886
  S        10.1118555804        9.9680332365       17.6167631500
  N        10.4835350519        9.6170203935       16.0418886987
  C        10.4803945190        7.4983061217       14.6835761439
  H        10.2016307557        5.4452458178       13.8001909330
  C         4.1523991857        0.8747063828       36.2673635586
  N         4.4420088719       -0.4153780912       36.3536999867
  O         4.8406163974       -2.2552960645       34.9826115127
  H         2.2951230231        2.1310735423       18.8437018845
  H         3.0317120973        0.8438822143       19.7285963346
  C         3.0848169265        0.5778711522       17.5507498758
  H        15.5486752052        3.4582689178       22.8264796915
  H        14.0611577986        2.8078192949       23.5368797647
  C        15.7571004602        1.3763759089       23.3831267656
  C        10.7910022067        8.2564696560       13.5640434080
  S         3.9084318691        1.8200118964       37.7424810905
  C         4.5858396592       -1.2472745865       37.6056017868
  H         2.1004638007        0.7931620790       17.2612177188
  H         3.6609854186        1.0081026671       16.7576189362
  C         3.3778941213       -0.9190004630       17.7079078185
  H        15.7445255960        0.5032621148       22.7055261822
  H        15.1844582672        0.9477730494       24.2500215002
  C        17.1876055734        1.8342433277       23.7027083348
  H        10.7301524267        9.3511651794       13.6347365158
  C        11.4979490655        7.9192595960       12.4334802388
  H         4.0794365426       -0.7643206955       38.4354245200
  H         3.9286119664       -2.1911347944       37.5937882657
  C         6.0290006412       -1.5444279374       38.0590178305
  H         4.1272640376       -1.0248297094       18.4496871026
  H         3.7908309544       -1.1988174894       16.7645787326
  C         2.0658165134       -1.6551127661       17.9578086577
  H        17.1341586668        2.7998582361       24.1309113524
  H        17.7398119185        1.1170942494       24.3059184000
  C        18.0229943478        2.0217594114       22.4200011955
  S        12.2683880107        6.4171407614       12.1824550462
  C        11.6875817776        8.9466161424       11.3408518513
  H         6.6008589286       -0.7011646643       38.3899823535
  H         5.9385348441       -2.3016519864       38.7831929680
  H         6.6904138185       -2.0461072048       37.3343803243
  H         2.2989177160       -2.7314045817       18.2269735557
  H         1.3370491738       -1.5906481316       17.1142689562
  H         1.5732495435       -1.2647455215       18.8627097921
  H        19.0174722562        1.9431919039       22.8221425876
  H        17.8756083972        2.9839630399       21.9753004768
  H        17.9539613121        1.2748522949       21.5884348121
  C        12.5767633793        7.1093346199       10.5832594942
  N        12.3409969180        8.3790009467       10.3550501717
  O        11.1997901538       10.0827022634       11.5513286566
  S        13.3730264665        6.1938901470        9.2920874545
  C        12.7121943472        9.1313910192        9.0861422364
  H        13.0841764759       10.1255526537        9.3278972580
  H        13.5712134076        8.5710883188        8.5318400905
  C        11.5767179073        9.2850798294        8.1071218844
  H        10.6052073753        9.1966114367        8.6855848935
  H        11.7424927036       10.2631874993        7.7009096237
  H        11.5843029288        8.5643958542        7.2976371959
  H        -3.4625798090       14.2585594621       16.3830516437
  C        -3.2697170837       13.1893353857       16.5174757455
  H        -4.1644460711       12.6097187621       16.6888407988
  C        -2.2643690383       12.9652955344       17.6819289319
  C        -2.8076444258       12.6009053963       15.1697975825
  C        -2.8189096286       13.3163390635       19.0667959911
  H        -2.0173793458       11.9404992304       17.7299223229
  H        -1.3245966371       13.5540041349       17.6405968378
  H        -3.6485303381       12.5579328036       14.5398515366
  H        -2.0762180424       13.2620397009       14.7699834245
  H        -2.4549478674       11.5033547891       15.1769073289
  C        -1.7886032642       13.4886953273       20.1035712064
  H        -3.4410754893       12.4846612167       19.2978113258
  H        -3.5108112974       14.1131092677       18.9345540451
  C        -2.4673474963       13.3149353332       21.4516543594
  H        -0.9362928613       12.8931238182       19.9432243638
  H        -1.4300488775       14.5507515278       20.0542106628
  C        -1.4763296249       12.8806823245       22.5550638492
  H        -3.3362669688       12.6964218912       21.3880571328
  H        -2.7230405123       14.3176982322       21.7718050085
  C        -0.2178733835       13.7771285655       22.8845693032
  H        -2.0644487277       12.6344357242       23.4459273136
  H        -1.1939951638       11.8518949983       22.2556691785
  C         0.9931503773       13.0275978699       23.4564365200
  H         0.0924552069       14.3383240061       22.0109653050
  H        -0.3400396150       14.5037965559       23.6520821592
  C         1.3013911210       11.6795027189       22.7011585482
  C         0.5166989988       12.2615700084       24.6929295444
  C         2.3229887454       13.8873878540       23.6855235553
  C         0.9928676370       10.5726441468       23.5080136674
  C         1.9660539274       11.2429560398       21.5623918829
  C         0.5357545752       10.9364151350       24.7264550390
  C         0.1492594809       12.8823255406       25.8555510389
  H         2.5288102548       14.6174237127       22.9511320714
  H         2.0716541822       14.4360403605       24.6273158286
  C         3.6253675934       13.1775909386       24.2179392884
  S         1.2009990485        9.0703614184       22.7361038706
  C         1.9687196481        9.8705866756       21.4107452275
  H         2.2169049472       11.9596180325       20.7612421067
  C         0.1637166403       10.2656615515       25.8586860778
  H         0.0930342232       14.0284927697       25.8855299267
  C        -0.3782508594       12.2334878312       26.9404978156
  H         3.9966954026       12.3472044411       23.5956594578
  H         3.3499313588       12.8248569953       25.1468913669
  C         4.8184982233       14.1310942212       24.2638307052
  C         2.4004924933        9.1258298086       20.1732145795
  C        -0.3197454671       10.9159057330       27.0541404313
  H         0.1530650006        9.1950801285       25.8769022071
  C        -0.7463343145       12.6089306191       28.2460825106
  H         5.3717621766       13.8141990844       25.0759057627
  H         4.6076467245       15.0379157197       24.6292916808
  C         5.6381632074       14.2609639725       22.9363385144
  C         2.2631026547        7.7514020538       19.9185495323
  C         3.0037722919        9.9226833856       19.0600250873
  C        -0.6998342540       10.2253862674       28.3385364427
  C        -0.9886478597       11.5571024698       29.0615617807
  S        -0.9256979810       14.1183251737       28.9823650802
  H         6.4296983462       14.9575373518       23.1829506735
  H         5.0742424403       14.5921936645       22.1038815101
  C         6.3007573395       12.8951087616       22.5364479172
  N         1.9709709712        6.8087572143       20.9557203448
  C         2.5154325354        7.1537597772       18.7131537575
  C         3.2985044493        9.2807076190       17.8380987086
  H         3.2912196473       10.9896458106       19.1870595902
  C         0.4313487489        9.4372944897       28.9809451017
  C        -1.9739156520        9.4009710814       28.0158015985
  C        -1.4206892666       11.9662029294       30.3016286484
  C        -1.3363447034       13.3384517474       30.4485607306
  H         6.8807857620       12.5941559458       23.3598266963
  H         5.6525933340       12.0697525312       22.1464745993
  C         7.2892793828       13.1656700116       21.3280284599
  S         1.9332809298        5.2851301169       20.1965065717
  N         2.3499529067        5.7733049625       18.6972274241
  C         2.9464811123        7.8638686953       17.5675926881
  H         3.9045719021        9.8643836201       17.2555123885
  H         0.7615546390        8.6489403086       28.2957078058
  H         0.0312538589        8.9742256465       29.8928159461
  C         1.5172061451       10.2709506791       29.5640812207
  H        -1.7332316859        8.7612201567       27.1447437031
  H        -2.2638973870        8.7133378992       28.8118979642
  C        -3.1442101338       10.2342604944       27.4747709049
  H        -1.7388994863       11.2014344315       31.0225274506
  C        -1.5656749561       14.0850875915       31.6796544996
  H         7.9989010395       12.3619843636       21.2506998669
  H         7.8986550787       14.0470018365       21.3779743053
  C         6.5551660637       13.4456092016       19.9264712976
  C         3.1846203442        7.1922087141       16.2929781063
  H         1.7031151297       10.9244177592       28.7379795497
  H         1.1478164715       10.9023449755       30.4081969860
  C         2.6877498103        9.5483242115       30.1490683718
  H        -2.8374776532       10.8629535460       26.6021474041
  H        -3.4888739548       10.9348094185       28.2591343228
  C        -4.2804922715        9.3324814966       27.1389768961
  C        -1.7409728805       15.5109890950       31.8258762933
  C        -1.7021925923       13.3859055976       32.9746530395
  H         5.7528324485       12.7947312844       19.8102959548
  H         6.0210119695       14.3736883160       19.9038564537
  C         7.5646380859       13.4085215197       18.7782195056
  H         3.1071865259        6.0668979457       16.2336136265
  C         3.5036359328        7.6219608611       15.0490572930
  H         2.9052280104        8.6816842840       29.5623500700
  H         2.3597686669        9.2168527243       31.1163305232
  C         3.9591796709       10.3583142451       30.1659089637
  H        -3.9194726983        8.4926389616       26.4801854103
  H        -4.4668150690        8.8856827949       28.0381693971
  C        -5.5926131364       10.0477367958       26.6711845008
  N        -1.5296641562       16.4676973366       30.8022103583
  C        -2.1050556013       16.1582687326       33.0415803710
  C        -2.0901734203       13.9632748201       34.1680017042
  H        -1.6081149165       12.3086970403       32.9014148645
  H         8.0125465701       12.4335267747       18.7297873186
  H         7.1255448191       13.8112359658       17.8752366330
  H         8.4421254113       14.0226244835       19.0273671866
  S         3.8768654364        9.2199382102       14.6121598542
  C         3.4858930751        6.6604163839       13.9452176159
  H         3.8850917744       11.0568247287       29.3433770431
  H         4.0276429261       10.9490408839       30.9796108044
  C         5.1948702946        9.6079367805       29.8647666338
  H        -5.6093012109       10.2493245647       25.6499912002
  H        -5.6135187003       11.0144592587       27.1346315422
  C        -6.8287486315        9.3746567234       27.2563641591
  S        -1.7034632271       17.9551078071       31.3747122657
  N        -1.9558028846       17.5389016622       32.9146775711
  C        -2.3289126000       15.4839150649       34.2507098759
  H        -2.0792657321       13.2953032223       35.0825603571
  C         4.1161870465        8.6165482512       12.9537293487
  N         3.8937207332        7.2858527765       12.8223398919
  O         3.2688726694        5.4244980953       14.0668318705
  H         6.1181946951       10.2555636604       29.8965216527
  H         5.2407606550        9.3457104677       28.8012072802
  C         5.3991600880        8.5235551151       30.9332437386
  H        -6.9023348053        8.4087726228       26.8364693499
  H        -6.7346217957        9.2782256953       28.3067867721
  C        -8.0252631042       10.2318819089       27.0514485043
  C        -2.5066905145       16.2396032931       35.4220845282
  S         4.6120852306        9.5664890043       11.5786054967
  C         4.1392308485        6.5586936158       11.6051912608
  H         5.8172659631        8.7589357344       31.8829439616
  H         4.4461397583        8.1354504434       31.1846969152
  C         6.3277763244        7.4166479246       30.4241561062
  H        -7.7275120667       11.2900574997       27.0022056634
  H        -8.5278706014       10.2395679882       28.0010811756
  C        -9.1084759973        9.8834895465       25.9911987824
  H        -2.6167589072       17.2543789972       35.4208310494
  C        -2.9460924376       15.8461248247       36.6481838555
  H         4.8790164143        6.8822379252       10.9693297517
  H         4.3986136704        5.5333096011       11.8772619690
  C         2.9001155708        6.5030267225       10.7512472644
  H         7.3280630840        7.7900893218       30.4253985984
  H         6.0474145793        7.2393678756       29.3793133948
  C         6.2957072772        6.1607979534       31.2260402870
  H        -9.6322572957        9.0476598419       26.3917217291
  H        -9.7764364878       10.7537752259       25.9172763589
  C        -8.5101980819        9.5672017782       24.6475623193
  S        -3.3823101822       14.2909413971       37.1111749750
  C        -3.0114638434       16.9131361623       37.6686052806
  H         2.7522524303        5.5478668668       10.2497050074
  H         2.0693622296        6.5172051562       11.4104194217
  H         2.9693646071        7.2349377053        9.9766432274
  H         5.8703551807        6.2345722047       32.2166451697
  H         7.3251712921        5.9213069729       31.4222699851
  H         5.8673942730        5.3692604996       30.6960241041
  H        -9.0659511416        8.7987167277       24.1509615529
  H        -7.5652975741        9.0917312030       24.7286834274
  H        -8.5994048045       10.4233597893       24.0228909158
  C        -3.7191715076       15.0092915957       38.7001212577
  N        -3.6038893319       16.3816883112       38.7834626708
  O        -2.7437120414       18.0947652416       37.4487469968
  S        -4.2140757364       14.1598216030       40.1737597599
  C        -3.6978501266       17.1317128994       40.0742889206
  H        -3.8098732568       18.2452736381       39.7820801804
  H        -4.6340082531       16.8031684102       40.5067739910
  C        -2.3722989065       16.8738704805       40.7740195153
  H        -1.6270031026       16.9469217450       40.0395292046
  H        -2.1900893552       17.5464780909       41.6350402994
  H        -2.3330091508       15.8912826300       41.1198439628
