352
 i =    49900, time =    49900.000, E =        25.3321301161
  H         9.3926828154        6.3791260802       32.6771473763
  C        10.4676470825        6.3429074933       32.6273674782
  H        10.7563591074        7.3842260959       32.6296051157
  C        10.9779513704        5.7339895104       31.3825320919
  C        10.8851483720        5.5450775443       33.7931032951
  C        10.6937995618        6.5653519117       30.1031829458
  H        12.0313926388        5.6345077050       31.5109053217
  H        10.6024171890        4.7358752846       31.3253589170
  H        10.6438205792        5.9624843058       34.7772753456
  H        10.3964980831        4.5507231150       33.8170214618
  H        11.9784441136        5.4916383320       33.7490247651
  C        10.4427959806        5.5196238866       28.9556333261
  H        11.4841953455        7.2935630606       29.8295174272
  H         9.8253190311        7.1951350597       30.1682533946
  C        10.6595701091        6.0572657084       27.5214443911
  H        11.1172072520        4.6021417498       29.1000633702
  H         9.4163845489        5.1690104199       29.0488484299
  C         9.7618921729        5.3295297271       26.5145419142
  H        11.6968710491        6.0296583100       27.2444004996
  H        10.3152960656        7.1439086404       27.5296032034
  C         8.4754103368        5.9583684460       26.1636936081
  H        10.3439620910        5.2234420988       25.6326598256
  H         9.6204517657        4.3006365099       26.8115666703
  C         7.5518605022        5.1094994720       25.2945472558
  H         7.9414505635        6.3211535315       27.0232006778
  H         8.7623970743        6.8122684999       25.5527580403
  C         7.2227636689        3.8210156716       26.0366029733
  C         7.9532796839        4.4210105277       24.0554197413
  C         6.2237525648        5.9587458362       25.1792618917
  C         7.4260736614        2.7358119789       25.1505171480
  C         6.6988420323        3.4619013516       27.3216498343
  C         7.8800099371        3.1129662202       23.9171746946
  C         8.3255870768        5.1578158796       22.9300638534
  H         6.4581724332        6.9458944052       24.7150381993
  H         5.9626759511        6.1864283970       26.2032242257
  C         4.9588853120        5.3461544041       24.5454773013
  S         6.9437487024        1.2821800779       25.8784158653
  C         6.4811735051        2.0916969351       27.3494355518
  H         6.4601634946        4.1764283781       28.0711118056
  C         8.3541715231        2.5837118597       22.7403064720
  H         8.1080610621        6.1857621150       23.0657186485
  C         8.6935836437        4.6006372754       21.7185199554
  H         5.1942016468        4.9607347790       23.5687209763
  H         4.7358692536        4.3644998635       24.9479942021
  C         3.7333454286        6.1835666693       24.2642183979
  C         6.0037550015        1.3439429154       28.6038318906
  C         8.7914821967        3.2636846503       21.6760989038
  H         8.3664385705        1.4934955648       22.7865614805
  C         9.0986747925        5.0057172471       20.4336371312
  H         3.1794530526        5.8325773640       23.3777099175
  H         4.1056724248        7.1571299327       24.0035745896
  C         2.7722063114        6.2760360004       25.4619785001
  C         6.0407219675       -0.0325761222       28.9143459872
  C         5.5490798672        2.1785653218       29.7124937373
  C         9.2787589568        2.5814044344       20.4179761356
  C         9.4713134912        3.9328499016       19.6096545017
  S         9.3391642497        6.4964261692       19.6538214121
  H         2.0984237189        7.1640565864       25.2952379829
  H         3.5703444884        6.5741561853       26.1980484698
  C         1.9824366584        4.9937481376       25.8142444162
  N         6.2802070161       -1.0608154676       28.0386556895
  C         5.6111942591       -0.5301789363       30.1594840812
  C         5.3308267327        1.7591282681       31.0350014911
  H         5.5866789742        3.2358795303       29.5864826547
  C         8.1739080559        1.7400261302       19.7744424088
  C        10.6521722310        1.8222504179       20.5177120872
  C         9.7688112858        4.2898357594       18.3124881337
  C         9.6925310515        5.6614604860       18.1321265496
  H         1.2925328095        4.5814379009       24.9894162254
  H         2.7655759634        4.2378320440       26.1438659211
  C         0.9522395211        5.1913521800       26.9452457337
  S         6.0135760067       -2.4878154968       28.8279571134
  N         5.4928126804       -1.9349660246       30.2166477745
  C         5.2514722764        0.2776057145       31.2770821606
  H         4.9904801654        2.4874579086       31.7494567816
  H         7.8984912068        1.0467519598       20.5320611323
  H         8.5548750433        1.1803037492       18.9180218476
  C         6.8619819871        2.4482931445       19.2495531960
  H        10.7861399136        1.1270589592       19.6121071161
  H        10.4476510003        0.9827113445       21.2967404311
  C        11.8041416245        2.7312820424       20.9952862302
  H        10.1008519318        3.4756558202       17.7404533341
  C        10.0807540211        6.4216590528       16.8690757501
  H         0.0526741734        4.5597212691       26.8118225995
  H         0.5337528808        6.2197181039       26.7863504756
  C         1.5965524537        5.0127103911       28.2949709698
  C         4.9064596918       -0.3798931077       32.5095588708
  H         7.0794767488        2.9318248697       18.3583087257
  H         6.5124495241        3.2838321157       19.9203431315
  C         5.7845076516        1.4230065567       18.9240040420
  H        11.4474865890        3.2422974612       21.8935466297
  H        11.9276199823        3.5863984193       20.3132882520
  C        13.1187675859        1.9544154032       21.2402027251
  C         9.9747828545        7.8629408917       16.7569639177
  C        10.5257857577        5.6829088427       15.7093022292
  H         1.9932949495        3.9577912275       28.3186355364
  H         2.3860059082        5.7345028761       28.3743950379
  C         0.6429185026        5.3136303273       29.4853757595
  H         4.8722659273       -1.4547137903       32.4733762041
  C         4.7243540963        0.0908582663       33.7938618011
  H         5.2296246462        1.0529778511       19.8419777882
  H         6.3209277331        0.5120672427       18.5049370684
  C         4.7807484581        2.0619590489       17.9119148463
  H        13.1175608314        1.3899962158       22.1552110421
  H        13.2190874406        1.2665877549       20.4078619471
  C        14.2277626484        2.9163467209       21.3564058000
  N         9.8010359635        8.7115495593       17.9015882551
  C        10.1962061208        8.5020016279       15.6446875153
  C        10.8293620602        6.3818559417       14.5303911086
  H        10.5961538436        4.6146482330       15.7590265652
  H        -0.3600947737        5.0051352441       29.2384574543
  H         0.9291185102        4.8292110263       30.4001589812
  H         0.5207102176        6.3186948596       29.7438829644
  S         4.4923916353        1.7090433986       34.3333321767
  C         4.5969530162       -0.8328677135       34.8906508412
  H         4.6727304100        3.1103247544       18.2093610174
  H         5.2857496092        2.1072951712       16.9401873437
  C         3.3958710760        1.4935754020       17.7854796230
  H        14.0525757135        3.9351971427       20.9200167078
  H        15.1214870929        2.5208917397       20.8203584086
  C        14.6465393887        3.1124088370       22.7742758777
  S         9.7329536757       10.2469509869       17.4461516403
  N        10.0397246034        9.9100596364       15.8654386018
  C        10.7257241536        7.8807771843       14.4224249717
  H        11.3224809891        5.7513235254       13.8242811532
  C         4.3363269366        1.1586727996       35.9703393999
  N         4.3123219603       -0.1855159828       36.0713501388
  O         4.6661674968       -2.0517551525       34.7524922840
  H         2.7352170065        2.1692397309       17.1648108558
  H         2.9934010421        1.4064221484       18.7390247012
  C         3.3758263671        0.1932346664       16.9205913612
  H        15.3826768060        3.9813371920       22.8687260348
  H        13.7713838144        3.2405957129       23.4017177651
  C        15.3519997033        1.9178523440       23.3825186789
  C        10.9835723434        8.6243879652       13.3093222934
  S         3.8314287848        2.2079388237       37.3596706588
  C         4.3736986156       -0.8334172591       37.3997530920
  H         3.3821556213        0.3536760515       15.8839822143
  H         4.2702802185       -0.3360890026       17.1183227532
  C         2.1753347718       -0.8011783878       17.0876923082
  H        15.5236123472        1.1448875481       22.5897799504
  H        14.6876887108        1.3765255718       24.0731398921
  C        16.6580839782        2.1577905911       24.1355168194
  H        10.7355480817        9.6233379175       13.3451243068
  C        11.4397636664        8.2744007428       12.0860562704
  H         3.7015685261       -0.4351439117       38.1982931368
  H         4.0884727820       -1.9100991109       37.1595392695
  C         5.8693816815       -0.9692363244       37.7938160525
  H         2.3173017784       -1.5967700675       16.3344370524
  H         1.2569696323       -0.2022409163       17.0729470403
  C         2.2501528678       -1.3365308224       18.5185117161
  H        16.7661665698        3.1394014714       24.6178107866
  H        16.8613668358        1.4415885083       24.9030547273
  C        17.7317215822        2.1705755858       23.0445394857
  S        11.7965162852        6.7273775116       11.4215468040
  C        11.7304047236        9.3688692116       11.1833270607
  H         6.2935623839        0.0361490485       38.0283816353
  H         6.0976820238       -1.6336950849       38.6228315173
  H         6.4383317830       -1.3823676739       36.8500916850
  H         2.1641334345       -0.5782316670       19.2430703455
  H         3.2665074833       -1.7802583803       18.5935359321
  H         1.3825758925       -1.9662812935       18.6570290786
  H        17.6080206452        1.3372167337       22.4038736946
  H        18.7374895926        2.1158720980       23.4899892883
  H        17.7152342456        3.1277595072       22.6174305137
  C        12.4170749851        7.5224066888        9.9743222442
  N        12.2691112480        8.8472948938       10.0317956527
  O        11.4804360682       10.5754779050       11.4689427315
  S        12.7868487277        6.6887964677        8.5202076956
  C        12.6399830124        9.6674634855        8.9275951623
  H        12.8656013172       10.6933431225        9.2883191114
  H        13.5005820097        9.3197633410        8.4921245504
  C        11.4762139918        9.7130559258        7.8531951750
  H        10.8686345173        8.8292255706        7.8455034314
  H        10.7280632209       10.4627199693        8.1696170355
  H        11.8524130450       10.0053014611        6.9336212032
  H        -1.5185719454       13.0692937000       16.9984842894
  C        -1.6571714460       14.1408774102       16.6696783973
  H        -0.6244429962       14.4322247692       16.5880808703
  C        -2.1182199412       14.9786811104       17.8683855309
  C        -2.4631370988       14.2454972620       15.3494648815
  C        -3.1700088557       14.2586558192       18.6669360600
  H        -1.2598324748       15.3137852911       18.4867318627
  H        -2.5596529649       15.8613455346       17.4035125252
  H        -3.3842550728       13.6295780564       15.4433242946
  H        -2.6376427833       15.3227478767       15.2050464289
  H        -1.9624600228       13.8569642018       14.4946944403
  C        -2.5940267105       13.2442159592       19.7766418031
  H        -3.7152679285       13.6198707030       17.9592402245
  H        -3.9866740270       14.9236602436       18.9957947681
  C        -2.0159853415       14.0018032921       20.9784297384
  H        -3.3670344090       12.6296403268       20.1720112220
  H        -1.8060243739       12.5864776329       19.4065260393
  C        -1.1191577759       13.1690371275       21.9574958028
  H        -2.8776712421       14.3885654385       21.5574359219
  H        -1.4403113411       14.7812068522       20.5548487555
  C         0.0372173795       14.0093558437       22.3942423975
  H        -1.7230137613       12.8477992980       22.7548989968
  H        -0.7238716868       12.3946654036       21.3629784910
  C         1.1928106158       13.3047218099       23.1517454542
  H         0.5275302115       14.3595847617       21.4484309515
  H        -0.3532748160       14.8782999344       22.8950292381
  C         1.4870691839       11.9464139887       22.4114653251
  C         0.7011517255       12.4112710494       24.3063027943
  C         2.3916132454       14.1493686557       23.4898119855
  C         1.1649807012       10.7758933760       23.1774084445
  C         2.0273710217       11.5756032359       21.1345324799
  C         0.6390830095       11.0323394151       24.3778112502
  C         0.1996458272       13.0698402442       25.4911124893
  H         2.4188364250       15.0200052441       22.8080804808
  H         2.2440673598       14.6998157419       24.4367716679
  C         3.7066419143       13.5014845614       23.6680523184
  S         1.7194284378        9.3448458723       22.4425318284
  C         2.1950747390       10.1880658389       21.0861838823
  H         2.2178155084       12.3368077766       20.3991700304
  C         0.1656800869       10.3972048723       25.4616081155
  H         0.0768217282       14.1350997699       25.4369091979
  C        -0.2622423995       12.4564893572       26.6039217209
  H         3.9021942101       12.8292024574       22.8024746267
  H         3.4902127799       12.9232960813       24.5831532228
  C         4.8973793444       14.4080673998       23.9140453155
  C         2.6137291875        9.5169737641       19.8070097210
  C        -0.2820214707       11.0841766722       26.6336182110
  H         0.2888377616        9.2709747892       25.4868994856
  C        -0.7368818430       12.7744941689       27.8838520357
  H         5.4797156833       13.9966802465       24.7531079416
  H         4.6780165118       15.4291029429       24.3235403415
  C         5.9660936058       14.5762318467       22.7763355319
  C         2.7033297510        8.1412844151       19.5571913041
  C         2.9356720904       10.3492485134       18.6031457024
  C        -0.6733313020       10.3777950743       27.8960907667
  C        -0.9642660463       11.6671436939       28.6771745663
  S        -0.9978836338       14.2470285163       28.8169706843
  H         6.8861368888       15.1135846091       23.2853161247
  H         5.5936512104       15.3491941990       22.0275220120
  C         6.5317006386       13.3239674244       22.0373144226
  N         2.3039666709        7.1504712988       20.4760581335
  C         2.9429759784        7.6043595138       18.2766258525
  C         3.3038735219        9.8411679665       17.3395027511
  H         2.8521892973       11.3754031655       18.7650939545
  C         0.4129312440        9.4556818209       28.5340479051
  C        -1.9764946387        9.5885973774       27.7108855928
  C        -1.1876270164       11.9761030848       30.0315744954
  C        -1.3782060656       13.2657860233       30.2274586925
  H         7.0905590806       12.8031873674       22.7596118989
  H         5.7289892363       12.7398581354       21.7170616977
  C         7.2431283068       13.7463829136       20.7619897349
  S         2.3704585237        5.7058704925       19.7755066826
  N         2.8452251899        6.1976256828       18.2833330787
  C         3.2622285680        8.4048985692       17.1729902499
  H         3.5006474846       10.5665743746       16.5354320001
  H         0.6756966185        8.5932371020       27.8727010019
  H        -0.0099370361        8.9480437325       29.3900845146
  C         1.6139116985       10.0992967412       29.1221076081
  H        -1.7556607168        8.9575299380       26.8570363341
  H        -2.1813204852        8.8129617011       28.5589006773
  C        -3.3488625413       10.2314916301       27.3122402125
  H        -1.0105910586       11.1784095615       30.7868955326
  C        -1.6760419368       13.9408924339       31.5707094200
  H         8.1264169124       13.1248214538       20.6202053144
  H         7.4629780446       14.8533274881       20.9583835534
  C         6.3808747837       13.5021445838       19.5127059007
  C         3.3507711428        7.7230483312       15.9164098256
  H         2.1825950103       10.4311019224       28.2607221798
  H         1.4006543273       10.9007405583       29.8389707585
  C         2.4981666544        9.0480131069       29.8668222798
  H        -3.3116719201       10.8926131913       26.4398165886
  H        -3.6034203138       10.9420023463       28.1704533247
  C        -4.4076984091        9.2004585159       27.1820882930
  C        -1.7661208114       15.3207391885       31.7387172125
  C        -1.6752146597       13.1268839153       32.8351131150
  H         6.1207891328       12.4764539852       19.4880331229
  H         5.3743953136       14.0277347124       19.4587483904
  C         7.1884468057       13.8822885278       18.2916452101
  H         3.3356381555        6.6723817598       16.0281071179
  C         3.6145288753        8.1663886555       14.6635983237
  H         2.7465862288        8.2126071876       29.2535783206
  H         1.9480003370        8.6996757189       30.7993621315
  C         3.8532417603        9.7668256168       30.0779082166
  H        -4.1067860389        8.4174462264       26.5384054332
  H        -4.5772276076        8.8459354504       28.2305967201
  C        -5.7192931906        9.8842552510       26.8065487954
  N        -1.4930934225       16.3076440051       30.7610031859
  C        -2.0659770884       15.8600557418       32.9489919819
  C        -1.8805693983       13.7100252022       34.0667909896
  H        -1.6026551695       12.0771360629       32.8124232070
  H         8.1824789087       14.4302148589       18.4876577425
  H         7.3710493907       12.9696879222       17.7033979830
  H         6.5660161004       14.4222848823       17.5626064958
  S         3.7211617783        9.8065249774       14.1509304997
  C         3.7874706099        7.1683752366       13.5049911149
  H         3.9489543951       10.7680202158       29.5836496016
  H         3.9688529599       10.1438735990       31.0921388665
  C         5.0139754436        8.9749288847       29.5397673066
  H        -5.7230477232       10.8178623149       27.3484120539
  H        -6.5906535189        9.2924622565       27.0633941436
  C        -5.8289131171       10.0304133456       25.3350249586
  S        -1.8864937270       17.7651323798       31.3621575488
  N        -2.2169882682       17.2641299943       32.8697344828
  C        -2.2912452936       15.1344341809       34.1225191300
  H        -1.9829081948       13.1608928362       34.9672915527
  C         3.9701995349        9.1437182766       12.5391949130
  N         4.0950704443        7.7875521595       12.4005430453
  O         3.7210801498        5.9213970482       13.6379451821
  H         5.8521075102        9.6038627372       29.3744985421
  H         4.9226273106        8.5937887262       28.5463936839
  C         5.3875315385        7.7709919270       30.4501688754
  H        -4.9618489968       10.6065476804       25.0355737700
  H        -5.7973846237        9.1076489234       24.7926240138
  C        -7.1072663251       10.7688964572       24.8504413017
  C        -2.5900650074       15.8137770990       35.3659770202
  S         4.5071769752       10.0809484952       11.1339956177
  C         4.3406282614        7.0258492458       11.1888984446
  H         5.7304187736        8.1696329935       31.4333860294
  H         4.4179007378        7.1960059050       30.6356479276
  C         6.4829093601        6.8679197091       29.8155755985
  H        -7.0687444370       11.3402184670       23.8881045380
  H        -7.2220282337       11.6584781609       25.5944548532
  C        -8.3865441103        9.9259420137       24.8683474848
  H        -2.3009509486       16.8220360775       35.5153188604
  C        -3.3240284060       15.3119116349       36.4255810418
  H         5.2381308815        7.4549972623       10.7251651802
  H         4.6476019576        5.9807078856       11.3694675313
  C         3.0762082754        7.0699641861       10.3706017079
  H         7.3781504344        7.4518258514       29.7617404894
  H         6.1599145955        6.4166233682       28.8547715579
  C         6.8963151049        5.6563127949       30.6323297772
  H        -8.8948689376       10.2992624303       24.0344175151
  H        -8.1564804750        8.9276610737       24.5980674480
  C        -9.2054709952       10.0315855410       26.1545435941
  S        -3.9825626899       13.7223086842       36.6390146157
  C        -3.6306951729       16.2521262148       37.5888448270
  H         2.4179364546        7.8149533145       10.7898132725
  H         3.3041707192        7.3285381988        9.3488957667
  H         2.5330495217        6.0901485666       10.2954394172
  H         7.5037739385        5.9891646353       31.4846900063
  H         7.4909959027        4.9448630091       30.0873961304
  H         6.1759421256        5.2205438984       31.2298261395
  H       -10.1188285805       10.6147816321       25.8921851287
  H        -8.6884955527       10.5821842228       26.9155148644
  H        -9.4532118365        9.0270968529       26.5553070144
  C        -4.6074057833       14.3165288973       38.2005477608
  N        -4.2484405479       15.5804056435       38.5448136211
  O        -3.1216552962       17.3628784643       37.7324284170
  S        -5.2561460349       13.3135750262       39.4807058616
  C        -4.4511643422       16.1212648982       39.9007522614
  H        -4.8380117889       17.0643749710       39.8331737848
  H        -5.1859437846       15.6274325689       40.5602046930
  C        -3.1364420970       16.0887737442       40.6189625568
  H        -2.9007172030       17.1201558382       40.9139809028
  H        -3.0163851937       15.4716721625       41.5513925646
  H        -2.5165069176       15.6980209255       39.9199568206
