352
 i =    60000, time =    60000.000, E =        24.6183198872
  H        10.2649163186        5.0912938383       31.3068002749
  C        10.7448538703        5.9708511080       31.7129390463
  H        10.0559756096        6.8075122483       31.6983398434
  C        11.8309424150        6.4153521965       30.7156863415
  C        11.3309477625        5.6443332159       33.1136401376
  C        11.7029096328        5.8489632937       29.3456851575
  H        11.8982073178        7.5334945679       30.6100557553
  H        12.8516679875        6.1531344344       31.0464243147
  H        10.4908126463        5.4433295726       33.7827046856
  H        11.9960401867        4.7541428393       33.0551544145
  H        11.6479150758        6.5797299207       33.5715902529
  C        10.3861242004        6.0858670538       28.5496881926
  H        11.7849859413        4.7574280237       29.4998494607
  H        12.5767312559        6.1974822340       28.8002124189
  C        10.6067105626        5.8698257353       27.0629907165
  H         9.5851004530        5.4076669888       28.9216735455
  H        10.0313735383        7.0600557549       28.7985083438
  C         9.5646954217        5.1192303092       26.2504627498
  H        11.5008074690        5.1907410820       27.0235402050
  H        10.8581834797        6.8343916790       26.6164809436
  C         8.2197470143        5.7709831985       26.0533063951
  H        10.0837619623        4.9214134054       25.2980181981
  H         9.4754757901        4.1102826579       26.7340909422
  C         7.1540880246        4.9867968923       25.2581372379
  H         7.7565163437        6.0213813594       26.9968131664
  H         8.4389983529        6.7003506231       25.4883111361
  C         6.7426044574        3.6431950447       25.9793137000
  C         7.6579105449        4.2324739768       24.0717421397
  C         6.0072485494        5.8282544369       24.6840624462
  C         7.1314898685        2.5133269579       25.2142668121
  C         6.2709460651        3.3076973804       27.2706068802
  C         7.5730107069        2.8766609329       23.9938547347
  C         8.0824351573        4.7943021722       22.8401998808
  H         5.5359928616        5.4308332122       23.7329221128
  H         6.4670738751        6.7608903209       24.2235090082
  C         4.9227144679        6.2093640715       25.6423552840
  S         6.9469974100        1.0534840011       26.0467852456
  C         6.3157926920        1.9490635188       27.4432358711
  H         5.8098234271        4.0836778455       27.9000873035
  C         7.8924167657        2.1283371548       22.8819473232
  H         7.9959650103        5.8634603647       22.8665850254
  C         8.4574800460        4.1228054696       21.7306681589
  H         4.7934591209        5.2762562921       26.1837314904
  H         5.0759952945        7.0280379572       26.3812156252
  C         3.5775360113        6.4201028571       24.9814697673
  C         5.9706663789        1.2845433524       28.7410033437
  C         8.3339423773        2.7624335468       21.6616910204
  H         7.9673970196        1.0728651265       22.8780262429
  C         8.9160490305        4.4155751157       20.4602997984
  H         3.2378915230        5.6853110333       24.1882009838
  H         3.5965038811        7.4194548624       24.4858359782
  C         2.3777331794        6.6003168142       25.9034391302
  C         5.9995014965       -0.1070050079       29.0100432319
  C         5.7429246847        2.1601319065       29.8817241228
  C         8.8523892752        1.9720884664       20.4409449602
  C         9.1411163490        3.2899110035       19.6252689717
  S         9.1352505632        5.9122049952       19.6814515964
  H         1.6675743904        7.1649084768       25.3748288308
  H         2.5941213895        7.1454593525       26.8022566081
  C         1.7562198757        5.2653409885       26.4401933067
  N         6.4110736635       -1.0825125623       28.1404279046
  C         5.6634264292       -0.6589266370       30.2719316900
  C         5.3086015997        1.6361675425       31.1407346633
  H         5.9025310981        3.1979558765       29.8056059714
  C         7.7464258869        1.0987691820       19.7436621392
  C        10.1807732928        1.1458701283       20.6248261661
  C         9.4954910545        3.6858449615       18.3128203681
  C         9.5567131931        5.0794879861       18.2344206037
  H         1.0954488540        4.8484156478       25.6734668204
  H         2.5337789884        4.4634416819       26.5552957470
  C         1.1653124757        5.3561074377       27.8156233186
  S         6.2296727832       -2.4965849388       28.7957180894
  N         5.9328430237       -2.0158389392       30.3035556055
  C         5.3303066995        0.1609458772       31.3917630400
  H         5.1369254168        2.4236913928       31.8537101714
  H         7.5692888393        0.1938984500       20.3332947766
  H         8.2553197537        0.8183220489       18.8394964024
  C         6.5288219650        1.9060328158       19.4328095685
  H        10.3608385368        0.7756727996       19.6658659812
  H        10.1049576615        0.2639971404       21.2447342053
  C        11.3428847148        2.0372431098       21.1463717036
  H         9.6949641324        2.8682573301       17.5811907860
  C         9.8116610799        5.8631689243       16.9874975850
  H         0.4574454045        4.5286835396       27.9283932859
  H         0.6584258295        6.3093741414       28.0484350393
  C         2.3212742145        5.4215920917       28.8905104944
  C         5.0906795959       -0.3971493548       32.6406112264
  H         6.6460032843        2.8559900492       18.8274839956
  H         6.0788175861        2.1899950674       20.3271691015
  C         5.5387819923        1.1426218107       18.6066519337
  H        11.0539968992        2.3245774829       22.1195200985
  H        11.4421613850        2.9086210377       20.5450768858
  C        12.6534956063        1.1433207971       21.1600986083
  C         9.7795699840        7.2727044157       16.8285760835
  C         9.9820821291        5.1057554769       15.7693047862
  H         3.0127239027        4.5250342254       28.9832037298
  H         2.9688599204        6.2572278101       28.6672753222
  C         1.6813479174        5.6012724741       30.2760783077
  H         5.1993463137       -1.4730459099       32.5647557557
  C         4.7383382846        0.0973626256       33.8768409514
  H         5.2400238525        0.2590965972       19.1977319713
  H         6.0620625831        0.8212865692       17.6867806801
  C         4.2183080949        1.9774865765       18.3422138509
  H        12.4254353151        0.2468589041       21.7571655492
  H        12.7029847095        0.7993010811       20.1133313806
  C        13.9571342772        1.7860521722       21.5918970440
  N         9.5295364906        8.1791137960       17.8908712336
  C        10.1295290428        7.8838630010       15.6562811890
  C        10.3228464811        5.6540629347       14.5831970135
  H         9.7405857428        4.0755471534       15.8216009726
  H         0.9982161863        4.7423875203       30.4460575443
  H         2.4353630656        5.6131037010       31.0368139163
  H         1.1411866332        6.5324280223       30.4057807913
  S         4.4548054585        1.7093274225       34.3425439063
  C         4.7108462810       -0.8555171984       35.1034174260
  H         4.0696207353        2.6621019912       19.1608482394
  H         4.5400445313        2.5766973051       17.4301970422
  C         2.9061752048        1.2998326511       18.1755268554
  H        14.1381775442        2.6424632703       20.9932528076
  H        14.8481315091        1.2176890454       21.5292785279
  C        13.9865788325        2.2397388119       23.0439672635
  S         9.6672691649        9.6624565408       17.2404609256
  N        10.0904224254        9.2841006209       15.7605543626
  C        10.4018729406        7.1635349923       14.4973300377
  H        10.3450330161        5.0432569677       13.7144837976
  C         4.1426788148        1.1510637306       35.9460580360
  N         4.2297440742       -0.1770147360       36.1944454078
  O         4.9370859844       -2.0500745804       35.0280995772
  H         2.2300021016        1.9153314052       17.6003304465
  H         2.4747916882        1.1177477179       19.1450534960
  C         3.0545510494        0.0106657267       17.3822470968
  H        13.0903196447        2.7616280808       23.1856270745
  H        13.8689366954        1.3781175837       23.6821193423
  C        15.1224864422        3.1494537149       23.3562891442
  C        10.7565091424        7.9016665300       13.3355176751
  S         3.9524709674        2.1825905911       37.3416458524
  C         4.2189092802       -0.8106505537       37.5390854726
  H         3.7924914112        0.1746222773       16.5264873083
  H         3.4466357640       -0.7633390371       18.0197629433
  C         1.7257262353       -0.4774116134       16.7391109810
  H        15.0515348732        3.4844734994       24.3922876791
  H        15.0444936704        4.1111801728       22.7759513581
  C        16.4642145227        2.4694694942       23.2386081312
  H        10.7251522575        8.9613580097       13.4204189464
  C        11.2614644486        7.4278927868       12.1386498660
  H         3.7251836690       -0.2068848874       38.2917205577
  H         3.6262829580       -1.7513886793       37.5264206329
  C         5.6856280667       -1.1016220550       38.0839139652
  H         1.5377423953       -0.0957213706       15.7228768597
  H         0.9057504030       -0.1040807706       17.3931502885
  C         1.5469695685       -2.0117875627       16.7191280176
  H        17.1639728170        2.6763850856       24.0565404144
  H        16.4658612021        1.3646399605       23.4217335644
  C        17.0307289954        2.5707617857       21.8334035996
  S        11.6611916486        5.8527522453       11.6670555172
  C        11.4533494084        8.4759506509       11.1190482102
  H         6.3067754272       -0.2087175528       37.8947414976
  H         5.7268708522       -1.4122036564       39.0636573329
  H         6.0276123237       -2.0280196697       37.5904433632
  H         1.9980113271       -2.4348234540       17.6302283174
  H         2.0595288960       -2.4914664370       15.8706993906
  H         0.5366957612       -2.3500270083       16.8193366654
  H        16.3384738329        3.1812471142       21.2187307549
  H        17.1601534612        1.6064471669       21.4344378602
  H        18.0732629985        2.9187233605       21.9207177180
  C        12.1468703085        6.5682065525       10.1076367627
  N        12.0142973862        7.9487819902       10.0088548455
  O        11.1429788435        9.6477258394       11.2134336406
  S        12.7496719380        5.6758154847        8.7531413516
  C        12.3010429918        8.8225716743        8.7922122950
  H        12.5464194049        9.8336802837        9.0889661029
  H        13.0829862559        8.4391568546        8.2407810316
  C        11.0310119261        8.8113370952        7.9637237513
  H        10.3903957300        7.9959808878        8.2001546089
  H        10.3633647673        9.5386140797        8.3490187616
  H        11.0488145899        8.8131996019        6.8430082818
  H        -4.0576404136       12.8417875037       16.1565230279
  C        -2.9669964389       13.1915774952       16.2185606768
  H        -2.3546919610       12.2950468155       16.4322810132
  C        -2.7677205813       14.0366495277       17.4503458029
  C        -2.3583018593       13.8202698615       14.9347525643
  C        -3.2525739636       13.4122269060       18.7392858890
  H        -1.6859193418       14.1944105938       17.4129150253
  H        -3.2529388590       15.0019810954       17.3377097276
  H        -2.9915192403       14.5910883436       14.4315533295
  H        -1.3927664175       14.3406535475       15.1519685613
  H        -2.0605929381       13.1394232018       14.1233145224
  C        -2.1189130895       13.2858685959       19.7627725202
  H        -3.7638566154       12.5394549192       18.4762276932
  H        -3.9942971935       13.9970860838       19.0971632216
  C        -2.6308353986       13.2521491310       21.1557708006
  H        -1.8264840185       12.2435081360       19.5473073817
  H        -1.2200591447       13.9674026936       19.6184440524
  C        -1.7206343828       12.7358526762       22.2449406129
  H        -3.4878694817       12.5439379871       21.0539882317
  H        -3.0948420361       14.2171518987       21.4035111244
  C        -0.4900501542       13.5858135961       22.4735293083
  H        -2.3127871412       12.7330085618       23.2324363502
  H        -1.4095812671       11.6908209640       22.0657148839
  C         0.7192186641       12.8130402235       23.1180185795
  H        -0.2164225314       14.0529599998       21.5290086175
  H        -0.8892954202       14.4059484955       23.1546785105
  C         1.1155042763       11.5041471998       22.4434665898
  C         0.3427710419       12.0950072689       24.4185666634
  C         1.9543835841       13.7395331561       23.2315533064
  C         0.7578988407       10.4163903197       23.2421550237
  C         1.6486084558       11.1657257923       21.1508379956
  C         0.3498372306       10.7538803422       24.5608649335
  C         0.1681100425       12.8108816631       25.5968274100
  H         2.2114291238       14.0705057034       22.2549351192
  H         1.6164493687       14.5960810251       23.8248269112
  C         3.1803457747       12.9878949446       23.9565857801
  S         1.1692855661        8.9560278432       22.4208239689
  C         1.7208966482        9.7609523589       20.9948281702
  H         1.8537068921       11.9457333300       20.4834133637
  C         0.0755502108       10.2350691833       25.7772750058
  H         0.2453594051       13.8848798537       25.5717377590
  C        -0.1150178388       12.2336257645       26.8237693459
  H         3.3499642097       12.0529788615       23.3822999654
  H         2.8369514540       12.6421694286       24.9470454775
  C         4.4703711800       13.8590822890       24.2246104839
  C         2.1991588727        9.0688302269       19.7642558882
  C        -0.2848707676       10.9092324797       26.9338579843
  H         0.1082017701        9.1517018042       25.8507280684
  C        -0.5981045984       12.6450285930       28.0533535433
  H         5.0945223061       13.3331423549       24.9414142146
  H         4.3755414993       14.9243252402       24.6597883046
  C         5.2174085432       14.0415492181       22.8665571097
  C         2.2594821332        7.6635301899       19.5115349515
  C         2.6675695602        9.9714559413       18.6394660747
  C        -0.5644913234       10.2061316886       28.2268069556
  C        -0.8031622971       11.6070811095       28.9414643931
  S        -0.8070962268       14.2325705029       28.8100144733
  H         6.0871617106       14.7836911171       22.9767389792
  H         4.4638875727       14.3930764125       22.1510006969
  C         5.9908301760       12.8193560760       22.3565913607
  N         1.9182434888        6.6468258183       20.3998827574
  C         2.6594073798        7.1584076004       18.2755557652
  C         3.0442627437        9.4709346511       17.4305565277
  H         2.8241165919       11.0119729493       18.8912827942
  C         0.7049876389        9.4359621943       28.6655487029
  C        -1.8954643842        9.3808116881       28.2321963794
  C        -1.3799641802       12.0427279065       30.1538658535
  C        -1.3974612183       13.4028017529       30.2813501469
  H         6.7763057599       12.5463233054       23.0206625749
  H         5.2915691394       11.9839437683       22.3638227366
  C         6.6019140881       13.0265603914       20.9782841212
  S         2.0650202677        5.2212796131       19.6802911332
  N         2.4925657752        5.7635943756       18.1987025959
  C         3.0317876208        8.0554822849       17.2542865203
  H         3.4692878956       10.1702227384       16.7296652196
  H         1.1482431320        8.7344013995       27.9521520696
  H         0.1882878216        8.8442690168       29.4380724027
  C         1.8757185455       10.3941093312       29.1281011661
  H        -1.6662756941        8.4568435442       27.7237245865
  H        -2.1648955831        9.1681035028       29.3207979766
  C        -3.0945953841       10.1090251660       27.5992464113
  H        -1.6524259949       11.2896543672       30.8495456883
  C        -1.6373712980       14.1112430358       31.5623390681
  H         7.1002200420       12.0819131251       20.7785401384
  H         7.3615171106       13.8244377304       21.0236461110
  C         5.5044310665       13.0709167905       19.8496948837
  C         3.2664142033        7.5040436778       15.9773743759
  H         2.1472315064       11.1449309446       28.3666539162
  H         1.7258825077       10.9702793152       30.0582967611
  C         3.1338715489        9.5018888509       29.3466183328
  H        -2.8364055700       10.5511929128       26.6357448427
  H        -3.4290399935       10.9168432564       28.2155889761
  C        -4.2409650965        9.1048926253       27.1305456592
  C        -1.6766899259       15.4746316709       31.7174784861
  C        -1.9833776643       13.3136869284       32.7564893690
  H         4.7214005013       12.4143756665       20.0800575771
  H         4.9332017212       13.9703422526       19.8691882409
  C         6.1278387487       13.0613933002       18.4963577168
  H         3.2570352408        6.4695015149       15.9703447810
  C         3.6399386416        8.0049057050       14.7351021318
  H         3.2651428229        9.0142213106       28.3911496652
  H         2.7568352596        8.6521104959       29.9544302746
  C         4.3501823938       10.1188528701       30.1223868606
  H        -3.9749372613        8.4468023124       26.2902830397
  H        -4.4710084783        8.3648875345       27.9413055392
  C        -5.4129194227       10.0647789603       26.7381237108
  N        -1.2957075228       16.3662731899       30.7280752261
  C        -1.9997128620       16.1514723305       32.8881712945
  C        -2.2525551439       13.9329782261       33.9789577189
  H        -2.1384748805       12.2845848829       32.7318856952
  H         6.7353805214       12.1059121361       18.4934149331
  H         5.4751986233       12.9277781316       17.6770656881
  H         6.8810390429       13.8734049177       18.3380548227
  S         4.0529066420        9.6057023545       14.3465432179
  C         3.7865141980        6.9522880475       13.6874721838
  H         4.9124401761       10.8049523797       29.4665062636
  H         4.0533138312       10.7883732489       30.9297325984
  C         5.5153238125        9.1769402482       30.6161342520
  H        -5.0308429449       10.7873728491       26.0355147330
  H        -5.7932547308       10.5825291750       27.6524068129
  C        -6.5858908955        9.3741094364       26.0898769234
  S        -1.4815478579       17.8680322801       31.3189958250
  N        -2.1272302105       17.5275493099       32.7987275575
  C        -2.3780842286       15.4167944948       34.1114938969
  H        -2.4668300824       13.3042621378       34.8122919698
  C         4.2710965845        8.9614969755       12.7036282402
  N         4.0807551499        7.6248132345       12.5325804695
  O         3.4373757442        5.7911631140       13.7600365593
  H         5.9625531036        9.6275853155       31.5006922318
  H         6.3459678207        9.2674956070       29.8274919991
  C         4.9435002322        7.7524721274       30.9468843986
  H        -6.3196936055        8.6212947294       25.4510153424
  H        -7.2055047529        8.8595843243       26.8850172727
  C        -7.4543425028       10.4145714103       25.1914463685
  C        -2.5747157122       16.1498607754       35.2698254741
  S         4.6854667386        9.8483612599       11.2122592859
  C         3.9399331815        6.9165009059       11.2661523572
  H         4.0720654180        7.6690439855       31.5754855062
  H         4.6850188625        7.1277741904       30.0616406889
  C         5.9871168083        6.7476206477       31.6425717574
  H        -7.0753472597       10.6493902764       24.1544778085
  H        -7.4045000373       11.4236638382       25.7346563791
  C        -8.8441769464        9.8197473001       25.0285886735
  H        -2.2362366531       17.1449596565       35.2011761710
  C        -3.0459330808       15.8350905346       36.5159509012
  H         4.1704806975        7.5261347105       10.4305014269
  H         4.6114444329        6.0227494127       11.3218348792
  C         2.4879667713        6.4888888047       10.9168359963
  H         5.4854856738        5.7320152289       31.7883266469
  H         6.1777283402        7.0732305033       32.6847340446
  C         7.2870433548        6.6641554086       30.7783760846
  H        -9.4137095798       10.1618772338       24.1256132498
  H        -8.7023329371        8.7353627289       24.9288478921
  C        -9.7411019065        9.9880307561       26.2582979132
  S        -3.7646111973       14.3544635827       37.0292704768
  C        -3.0064635409       16.8531609772       37.5409274911
  H         2.0580434504        7.1172798199       10.1555266758
  H         2.3106328796        5.5045548033       10.5658997040
  H         1.8413325278        6.4407018681       11.7820861329
  H         7.1299580999        6.1554255646       29.8455233273
  H         8.0207531117        6.0573022216       31.3635402165
  H         7.7543767961        7.5604535583       30.4727095493
  H       -10.7535173011        9.6231267465       26.0240704690
  H        -9.7233012445       11.0444423970       26.4616721085
  H        -9.2814369529        9.4604557704       27.1366860042
  C        -3.8778758201       15.1294134273       38.6587243309
  N        -3.6434657176       16.4651625312       38.6594474292
  O        -2.6088881647       18.0422071182       37.3182099738
  S        -4.5888609610       14.4824569791       40.1328946931
  C        -3.6951546617       17.3242053184       39.8640005714
  H        -3.8939563060       18.3602479958       39.6233779409
  H        -4.5244439657       17.2178723118       40.4959632411
  C        -2.3844729645       17.1343566538       40.6863684115
  H        -1.9376633161       16.2456481103       40.3563148989
  H        -1.6485644157       17.9491109960       40.6687847506
  H        -2.5983063131       17.0442165723       41.7525551997
