352
 i =    26100, time =    26100.000, E =        25.1521389519
  H        12.1715053044        6.7978374125       32.3943354240
  C        11.6615387297        5.7886587067       32.4357575477
  H        12.4908810651        5.2546604897       32.0464490797
  C        10.5188439854        5.5878490421       31.4636419679
  C        11.1725301397        5.4716056828       33.8422696063
  C        10.9699332309        5.8117079370       30.1063374055
  H        10.1618945110        4.6133675286       31.5270829427
  H         9.6534772798        6.2328676811       31.6200868010
  H        10.7162551711        6.3797526958       34.2130511986
  H        10.4773420349        4.6342553918       33.9755534091
  H        11.9932867882        5.4558888670       34.5768400462
  C         9.8548148047        5.8044233678       29.0538461267
  H        11.6573451498        4.9807814339       29.8373735459
  H        11.4966946055        6.7824396810       30.1756477158
  C        10.4154321802        5.9381164024       27.5681144927
  H         9.4223090731        4.7782219627       29.3402933289
  H         8.9951697940        6.5188707783       29.2716969785
  C         9.5018485054        5.3234619736       26.5535617272
  H        11.3347416207        5.4277517663       27.3951511670
  H        10.5148124010        6.9526119420       27.2222753699
  C         8.3914076073        6.2952548156       26.3084289720
  H        10.0756061546        5.1248993942       25.6702999187
  H         9.2254802719        4.3248184712       26.9631132717
  C         7.2243039974        5.5870664523       25.5429678797
  H         7.8926757633        6.5974309670       27.2652827792
  H         8.7802808499        7.1679657085       25.8584407490
  C         6.8047825803        4.2183077143       26.1836224730
  C         7.6098200606        4.8218027176       24.2813846526
  C         5.9829237207        6.4916910820       25.2496415860
  C         6.9476859002        3.1463956297       25.3332667361
  C         6.4475642877        3.7458991516       27.4319163038
  C         7.4551987913        3.5124526864       24.1141067081
  C         8.0304796584        5.4984052817       23.1255609410
  H         6.3028821326        7.2618345029       24.5569646250
  H         5.6489122041        6.9964665836       26.1511113599
  C         4.7659931868        5.6935386575       24.8386216143
  S         6.3971100989        1.6095793235       25.9129199499
  C         6.1523237097        2.3834996190       27.4673679708
  H         6.3325084549        4.4664474606       28.3054561674
  C         7.7095906023        2.9332560422       22.9055924471
  H         8.0924636081        6.5672980445       23.2943693139
  C         8.2185666950        4.9191719298       21.9117793879
  H         5.1227265766        5.4506954986       23.8327605842
  H         4.5483074776        4.7023251920       25.2753658216
  C         3.4586043991        6.4953407184       24.6616095343
  C         5.7009130895        1.6703036076       28.7112112962
  C         8.0891230562        3.5951960456       21.8071067559
  H         7.4980615901        1.8961442521       22.9331588057
  C         8.6192108062        5.2146659176       20.6252152740
  H         2.7493059994        6.0292234575       23.9203504646
  H         3.6096335855        7.5596673070       24.2884958788
  C         2.7139719898        6.8208079730       26.0003310650
  C         5.8014453322        0.3333097064       28.9666228535
  C         5.5313097951        2.5825044854       29.9313337419
  C         8.5106025666        2.7519221778       20.5674117485
  C         8.7796676060        4.1106383798       19.8142856851
  S         9.2774369701        6.6535161947       19.8714684527
  H         1.9755557887        7.6122260188       25.7506308549
  H         3.3111231100        7.1908271773       26.8081114388
  C         2.0969081247        5.6346825573       26.5885498247
  N         6.0801238037       -0.6007038458       27.9506194852
  C         5.6998783012       -0.1593639260       30.2790515106
  C         5.3436982663        2.0572703864       31.1490186268
  H         5.4345908634        3.6512276453       29.8462131246
  C         7.3819377546        1.8667542382       19.9468669361
  C         9.8958419551        1.9877219186       20.7592298369
  C         9.2778317964        4.4028533591       18.5439602715
  C         9.4637326817        5.7740393528       18.3919669155
  H         1.0897825019        5.5808317367       26.1774361278
  H         2.5517310425        4.7103701364       26.2483721972
  C         1.8568011268        5.5699197394       28.0781443606
  S         6.1252665624       -2.0293496931       28.6467729630
  N         5.9765153688       -1.5586839601       30.2579585571
  C         5.3723806239        0.6077792657       31.3959378406
  H         5.2493131667        2.7845566582       31.9703643053
  H         7.1159989068        1.0923193058       20.6378761744
  H         7.7631798423        1.3553877954       19.0573724745
  C         6.1225637215        2.5457621167       19.3988590455
  H        10.0914754271        1.2368853159       19.9534270770
  H         9.7997367967        1.2985786815       21.5716290508
  C        11.1099684008        2.8701176771       20.9862698743
  H         9.4760940816        3.6225729376       17.8004624854
  C         9.8003244696        6.4281830990       17.0453151856
  H         1.1933930949        4.7333027278       28.2389325051
  H         1.3448544400        6.4840809474       28.2719469486
  C         3.1875949154        5.4791820520       28.9785737200
  C         5.0660566350       -0.0648169803       32.6503169186
  H         6.3361154764        3.4552974675       18.7459858058
  H         5.7163727513        3.0611094401       20.2114825807
  C         5.1649999908        1.6124993764       18.6473635712
  H        11.0511274600        3.6270636017       21.7847293105
  H        11.3096795492        3.4282210716       20.0609143459
  C        12.2768131617        1.9688005504       21.4105209474
  C         9.8603724903        7.8335093140       16.9131273278
  C        10.1806941328        5.6209480912       15.8045675526
  H         3.6662196572        4.5879091877       28.6868906718
  H         3.8965217452        6.2780508490       28.7524260283
  C         2.7414515936        5.2449109734       30.4814710245
  H         5.1992310510       -1.1239030467       32.6086526234
  C         4.7970897178        0.3742150525       33.9246246733
  H         4.7629942604        0.8585646381       19.2875830974
  H         5.7781990656        1.0218331025       18.0011344095
  C         4.1915649274        2.4647796734       17.8499299215
  H        12.0364194395        1.6782523177       22.4500634113
  H        12.2283195354        1.0867670135       20.7866152739
  C        13.6431895699        2.6339205699       21.2717001927
  N         9.5933496955        8.7669555781       17.9400975751
  C        10.1860216236        8.4766711618       15.6991447449
  C        10.6212559735        6.2786080777       14.6856762316
  H        10.2337058355        4.5694603349       15.9058265181
  H         1.6193906022        5.1218176191       30.6226790612
  H         3.2349380098        4.3333933949       30.8209432692
  H         2.9897660166        6.1028959167       31.2059476753
  S         4.4376869435        2.0047536722       34.4202031937
  C         4.8809807391       -0.6058070956       35.0245780302
  H         4.0643833189        3.4180422311       18.2760866200
  H         4.5596516980        2.6106387666       16.8118230739
  C         2.8109139206        1.7637204149       17.7178686473
  H        13.6278028284        3.5119372452       20.6768598550
  H        14.4077449907        2.0460266425       20.8130029004
  C        14.2014539070        3.0840345624       22.6031425363
  S         9.7208917193       10.2779729843       17.2813946049
  N        10.1271977893        9.8309859054       15.7411728051
  C        10.6207631110        7.7730468715       14.5451601074
  H        10.9234998470        5.7016258703       13.8853005992
  C         4.2746836470        1.2586177931       36.0707874318
  N         4.5388427140       -0.0726834651       36.2181725635
  O         5.2719075238       -1.7258658423       34.8607405864
  H         2.0635403617        2.3762336196       17.3827314084
  H         2.4454515111        1.4843483838       18.6959163134
  C         2.9303150980        0.4529100328       16.9384905733
  H        14.8860180348        3.8787568612       22.5491828578
  H        13.3550931995        3.5568066988       23.1387691510
  C        14.7752604925        1.9475923061       23.3771645752
  C        10.8334873906        8.5335904235       13.3847481491
  S         3.9658715334        2.3343967908       37.4768836860
  C         4.5932090497       -0.7663633363       37.4957661851
  H         2.6847769339        0.6037794609       15.8821339916
  H         3.9844765904        0.0385478546       16.9244062537
  C         1.9808681093       -0.5315178600       17.4997868783
  H        14.6389386651        1.1016183832       22.7456057008
  H        14.2327105875        1.6971708174       24.2718188021
  C        16.2969586953        2.0954598251       23.6472182407
  H        10.7314515329        9.5925689239       13.5337088989
  C        11.3300548441        8.3148519581       12.1260016885
  H         4.1054568559       -0.1555216594       38.2802827948
  H         4.1179719002       -1.6780319118       37.4937567845
  C         6.0767374470       -1.0121044011       37.8623085561
  H         1.8579641870       -1.2850853166       16.7545234418
  H         1.0764862282       -0.1678152272       17.8844511985
  C         2.6083777391       -1.1897888076       18.6349949996
  H        16.4804625223        2.9470825999       24.3156737191
  H        16.6713116670        1.2783490299       24.2521648838
  C        17.1147822636        2.2778400105       22.3411775980
  S        11.7636787079        6.7943330459       11.6010641535
  C        11.4200030922        9.4099276401       11.1677278694
  H         6.4044224680       -0.5908560133       38.8339928436
  H         6.2563875183       -2.0743120750       38.0124413196
  H         6.7709955392       -0.7700837992       37.1434969017
  H         2.7927729220       -0.4105548450       19.4380377032
  H         3.5423078569       -1.6277337166       18.3928735246
  H         1.9468521083       -1.9574884379       18.9804783891
  H        18.1687644770        2.3785801604       22.5539933282
  H        16.8296736400        3.2989935701       22.0255696730
  H        16.8567339538        1.5688341419       21.6094477443
  C        12.0834078829        7.5756390883       10.0819644522
  N        11.9832684526        8.9217994481       10.0937964086
  O        11.0193220693       10.5756806131       11.4061037156
  S        12.8511673825        6.7048444538        8.7845236220
  C        12.1268622219        9.7554244339        8.9198003081
  H        12.0171117802       10.7856388546        9.1947015031
  H        13.1446618814        9.6737809283        8.4993127971
  C        11.0594285726        9.5584479312        7.8891753512
  H        10.5364811918        8.5894689545        8.0330731664
  H        10.2817866665       10.3267636094        7.8932322564
  H        11.5456343836        9.6631606451        6.8655573274
  H        -3.3308648131       15.2836479322       16.7536219569
  C        -3.0324812884       14.2354818666       16.7080995966
  H        -3.9334491638       13.7965720491       17.0401621589
  C        -1.8254298108       13.7601765719       17.5871184260
  C        -2.8676689324       13.5704083101       15.3011094669
  C        -2.1532670498       14.0240186136       19.0426889993
  H        -1.8685439832       12.6867505735       17.5099226464
  H        -0.9193716851       14.0968726874       17.2381716779
  H        -3.8779911904       13.3702838257       14.8551365489
  H        -2.4550263384       14.2936423065       14.5727276291
  H        -2.3574126451       12.6239669125       15.2251695883
  C        -2.4128750640       12.7720125979       19.8170912374
  H        -2.9749174890       14.7118947278       19.0485924928
  H        -1.2923119076       14.4668503678       19.5132378578
  C        -2.6730298792       13.0107110385       21.3284304155
  H        -3.3133896573       12.3169302602       19.3905362907
  H        -1.5669831445       12.1199153687       19.5955109537
  C        -1.4717633093       12.6316070231       22.1828745225
  H        -3.4912422708       12.3121749643       21.5896571473
  H        -2.9161122515       14.0723109551       21.4792711926
  C        -0.3751730596       13.7190822086       22.4422130762
  H        -1.9217942627       12.4686145846       23.1745859142
  H        -1.1274578741       11.6758931101       21.9576185077
  C         0.8596665731       13.2627313819       23.2187978352
  H        -0.1171456203       14.0694631400       21.4469195121
  H        -0.8928544806       14.5813901885       22.9391409612
  C         1.2004252594       11.9066386893       22.5574436614
  C         0.6208947597       12.5361164673       24.5425823072
  C         2.0564510246       14.3275597784       23.0648684828
  C         1.1694418799       10.8082099601       23.4012801223
  C         1.6063785103       11.5296859133       21.2514330850
  C         0.7706156696       11.1799074064       24.6614217165
  C         0.1947229753       13.1791722358       25.6979299062
  H         2.1359334800       14.8138977227       22.0224051019
  H         1.8071108473       15.2023854975       23.7435608722
  C         3.3755903733       13.6443947014       23.4865883995
  S         1.5249031316        9.3559131261       22.5921909846
  C         1.8143929528       10.2054698182       21.1265334819
  H         1.6717883624       12.2663091791       20.4297703469
  C         0.3308836762       10.5877646017       25.7836036571
  H         0.0374026998       14.2324007769       25.6189737508
  C        -0.0420882345       12.5625743643       26.8773386880
  H         3.5289488629       12.6326415897       22.9591127863
  H         3.4357984214       13.4555070037       24.5736543852
  C         4.6631745329       14.5263889299       23.3123365244
  C         2.3457914612        9.5646387814       19.8830309939
  C        -0.0867529552       11.2523026818       26.9489243788
  H         0.2838074537        9.5084403357       25.7028963708
  C        -0.5549544008       12.9005528877       28.1325159244
  H         5.4462984244       14.0850136456       23.9642800912
  H         4.5683592289       15.6074749027       23.5924487470
  C         5.2569348396       14.6766309572       21.8610548258
  C         2.2887771069        8.1853496572       19.5903301198
  C         2.8098276034       10.5030651215       18.7934900489
  C        -0.4715027351       10.5004521070       28.1456872883
  C        -0.7507232053       11.8133784947       28.9248891318
  S        -0.7473788987       14.3671019071       28.9406421824
  H         6.2122584322       15.1698810903       21.8776255833
  H         4.7576477967       15.3068887063       21.1893474514
  C         5.5800602705       13.3156693860       21.2536332721
  N         1.8688292121        7.1723803860       20.4744732051
  C         2.5423952706        7.6793236926       18.3000873141
  C         3.2037931182        9.9797200484       17.5758899023
  H         2.8852920983       11.6364654476       18.8532605346
  C         0.7648942400        9.7835112218       28.7535711190
  C        -1.6585722972        9.5140124706       28.0278677578
  C        -1.1265758561       12.2565585389       30.2096463631
  C        -1.2774898645       13.6109669439       30.3469178224
  H         5.7425716206       12.6943457559       22.1370961347
  H         4.7433808738       12.7975029777       20.6820054107
  C         6.8479558167       13.2938679951       20.3977128465
  S         2.0585293477        5.7829482971       19.6943209635
  N         2.4741095675        6.2818525334       18.2177993238
  C         3.0152777101        8.4902680739       17.2789380426
  H         3.7118157150       10.5495830127       16.8473475983
  H         0.9975700103        9.0867845918       27.9418160824
  H         0.3518721760        9.1920171426       29.5621232040
  C         1.9117026994       10.6443252278       29.1955651765
  H        -1.3545590768        8.6183876164       27.4434796455
  H        -1.8597525070        9.1772364257       29.0457879230
  C        -2.9403377730       10.1565865466       27.5464401817
  H        -1.0569973751       11.5314101340       30.9880022207
  C        -1.5973868915       14.3642177656       31.6133703086
  H         7.0303454895       12.2230226072       20.0914676873
  H         7.7068191728       13.5736347244       20.9075913527
  C         6.6731786799       14.0424509299       19.0523128512
  C         3.4218664852        7.8133769072       16.0227223179
  H         2.2141421618       11.3210060139       28.4364825698
  H         1.6979595468       11.2772900831       30.0281323179
  C         3.0919417688        9.7209137330       29.6870226020
  H        -2.7066971636       10.7601881902       26.7353595213
  H        -3.3658324686       10.8434895486       28.2660242393
  C        -4.1503622995        9.1986915117       27.2399329113
  C        -1.6367059902       15.7303047440       31.7613404367
  C        -1.8413265367       13.5489752146       32.8365835505
  H         5.9683329558       14.8411012062       19.2751024041
  H         7.5392344094       14.5895299506       18.8304953502
  C         6.2430583559       13.1974846210       17.8247720750
  H         3.2057967074        6.7299282559       16.0657162189
  C         3.7611412490        8.2958570099       14.7533738634
  H         3.3029052229        8.9898358329       28.8815764452
  H         2.6457868966        9.0669666872       30.4485615282
  C         4.2727619738       10.5322550261       30.1739612601
  H        -3.8511746960        8.4611268336       26.4837910388
  H        -4.3823063731        8.6037132144       28.1288541113
  C        -5.5050172933       10.0268432766       27.0378425947
  N        -1.3597888324       16.7259860103       30.7712414828
  C        -1.7878286977       16.3716050535       33.0503717409
  C        -2.0465835790       14.1264006968       34.0784494546
  H        -1.8330777503       12.4371582332       32.7968822044
  H         6.9970799729       12.9896424491       17.0749240806
  H         5.6675084035       12.3248401803       17.9932619337
  H         5.5265765011       13.7425196541       17.2454973935
  S         3.9440633223        9.9850809009       14.3365970757
  C         3.9258355602        7.3569918190       13.6893410089
  H         4.6078951340       11.1693930458       29.3251151170
  H         4.0034536765       11.2183435943       30.9967806187
  C         5.3477088822        9.5215129032       30.5267128437
  H        -5.2907073993       11.1242629427       27.1252601914
  H        -6.1768613310        9.8810407117       27.8809497613
  C        -6.1007895674        9.6038320121       25.7282378635
  S        -1.4634871963       18.1817745318       31.4281741560
  N        -1.7437406692       17.8013296196       32.9564256432
  C        -1.9976608903       15.6173430002       34.2409245903
  H        -2.0991130808       13.4941138042       34.9003044702
  C         4.4053875767        9.2889368692       12.6631897941
  N         4.3039660431        7.9431633748       12.5371196721
  O         3.8369594712        6.1585830484       13.8417726630
  H         6.2563589137       10.0557462369       30.7327198089
  H         5.6283996414        8.9266066098       29.6013948548
  C         5.1032598214        8.6327446309       31.7275451744
  H        -5.2913332848        9.3960933003       25.0150667851
  H        -6.6021709662        8.6474542037       25.9141479298
  C        -7.1689215638       10.5702387995       25.3097569233
  C        -2.1731880118       16.3452013000       35.4460614318
  S         4.6658589404       10.1930883553       11.1385135491
  C         4.7179679460        7.1590654395       11.3187048714
  H         4.7859750341        9.2327539582       32.5476966940
  H         4.2742331418        7.9168358735       31.5710134031
  C         6.4445202251        7.8554761490       32.2059772587
  H        -7.3371088830       10.5895834057       24.2634243325
  H        -6.7480544820       11.6030342522       25.3453492100
  C        -8.4805971369       10.5289108558       26.1207844229
  H        -2.0578585409       17.4540633337       35.2887393017
  C        -2.6636649344       16.0180896265       36.7049707815
  H         5.4784459854        7.6462891251       10.6966669215
  H         5.1395944378        6.1744897353       11.6222966862
  C         3.4850531303        6.9436904364       10.3370499451
  H         6.4394315422        7.9047879188       33.3137551999
  H         7.4567552080        8.3230974491       31.9190984034
  C         6.2710389500        6.3245103212       31.7317227293
  H        -8.3590661612       10.2326254247       27.1361863542
  H        -8.8596698723       11.5425709133       26.1572724577
  C        -9.4491660806        9.5489750852       25.4518829870
  S        -3.1939877441       14.4629026583       37.2412167451
  C        -2.6643518145       17.0345643243       37.7596317169
  H         2.4937998152        6.9228510507       10.8525110748
  H         3.5848043069        7.7303725417        9.5798725712
  H         3.6532110647        6.0522757996        9.7525731321
  H         5.9737070745        6.3626909653       30.6744026143
  H         5.4310961106        5.8922003900       32.2204803328
  H         7.2585130890        5.8460314906       31.9222509698
  H       -10.4604013985        9.6630491909       25.7034942563
  H        -9.1101603515        8.5190677661       25.6306486869
  H        -9.4232423838        9.8037514020       24.3951906687
  C        -3.7457394497       15.2973892066       38.6851179247
  N        -3.3732293295       16.5913655261       38.7586152129
  O        -2.3332261178       18.1802085065       37.6226898385
  S        -4.3424484466       14.4972280354       40.0583596906
  C        -3.5781753565       17.3296280875       40.0170894556
  H        -3.5731261277       18.4531502318       39.9771877763
  H        -4.4995444009       16.9020088771       40.5018155968
  C        -2.3627326377       17.2786678691       40.8835085262
  H        -2.5280870316       17.6342453806       41.9031497480
  H        -2.0592512227       16.2412175291       40.9511241286
  H        -1.4771570363       17.7686939434       40.5093050708
