352
 i =    63500, time =    63500.000, E =        25.1342522625
  H         9.7344631772        4.5579559912       32.0989179717
  C        10.0638957091        5.4763582779       32.5052343636
  H         9.2050425162        5.8081946477       33.2306275283
  C        10.3672279080        6.4685393730       31.3870577620
  C        11.3491032838        5.1508254118       33.3441142501
  C        11.0177112228        5.7799629728       30.2411256570
  H         9.4503110968        6.8426937344       30.9485347003
  H        10.8324115758        7.4121481254       31.8142485571
  H        11.3442670928        4.1772825058       33.9229499917
  H        12.2010726477        5.0702507039       32.6726493700
  H        11.5857162762        5.9778915281       34.0506075641
  C        10.0947332006        5.1126891806       29.1931593911
  H        11.6556181228        4.9873982579       30.5837090812
  H        11.6520495214        6.5559308440       29.7866850450
  C        10.5119844990        5.3312734067       27.7105829554
  H        10.1183350337        4.0723456805       29.3072754719
  H         9.1080130164        5.3858940976       29.4446449247
  C         9.4761591252        4.8232250218       26.7362769199
  H        11.3973100731        4.7774623140       27.3971128512
  H        10.6299762749        6.3958512224       27.6576151673
  C         8.3494836236        5.7159665534       26.2643563285
  H        10.0651321942        4.5515133223       25.8882483950
  H         9.1369067181        3.9010117985       27.1353806717
  C         7.2998766827        4.8787967764       25.3664327952
  H         7.8111587924        6.1846263761       27.0925027993
  H         8.6883730120        6.6330675925       25.7005929209
  C         6.8956908895        3.5602080206       26.0008609233
  C         7.8231254564        4.1909823004       24.2015138678
  C         5.9503305652        5.5132466297       25.0078293943
  C         7.1707025353        2.4440525153       25.2318986927
  C         6.3648215381        3.1854083773       27.2180681326
  C         7.6870168751        2.8412664162       24.0314145291
  C         8.3812395317        4.9381452550       23.1684396830
  H         5.4483524460        4.8710392836       24.2708082890
  H         6.0616384268        6.4172875779       24.3647383111
  C         4.9485617184        5.9269210601       26.0935451843
  S         6.7709800656        0.9525964263       25.9137824617
  C         6.2544694096        1.8303106461       27.3061829842
  H         6.1631083498        3.9073761910       27.9806368887
  C         8.1142249951        2.2176736377       22.8764605626
  H         8.5174673504        5.9794472205       23.2834810520
  C         8.6372063035        4.3413495197       21.9492209389
  H         4.9819325470        5.3288171155       26.9942440493
  H         5.2931010053        6.8410434503       26.4974566212
  C         3.5615338663        6.2730513636       25.5491823516
  C         5.7386894999        1.2492335232       28.5507032108
  C         8.6012030245        2.9973952566       21.7569012201
  H         8.0448788943        1.1236286794       22.7365581388
  C         8.9480257798        4.7150462552       20.6823240572
  H         3.1792993494        5.5727034003       24.8729530394
  H         3.4773180423        7.1897473125       24.9928125618
  C         2.5511513158        6.4053527577       26.7053979119
  C         5.7439545046       -0.1273665930       28.8768909659
  C         5.1379945636        2.1186620669       29.6678813588
  C         8.8418553178        2.3017962354       20.4411023793
  C         9.0691073463        3.6439272049       19.7704819065
  S         9.3092960211        6.2338195846       19.9104304427
  H         1.7385009084        7.0606338745       26.3560117906
  H         2.9545636616        6.9589537684       27.5280445018
  C         1.8160120241        5.0731929383       27.1226099696
  N         6.1325551232       -1.1487909586       27.9942244991
  C         5.5238753791       -0.6584237680       30.1176782583
  C         5.0012145796        1.5468756163       30.9890029043
  H         4.7701609034        3.1253300015       29.5866990487
  C         7.6092307538        1.6355879403       19.8053652400
  C        10.1139394250        1.3138181812       20.4966861575
  C         9.4582728352        4.0804766639       18.4420534208
  C         9.4578723352        5.4421666117       18.3491567183
  H         1.2323803322        4.7188572188       26.3034931455
  H         2.5187164934        4.3532073113       27.4635304507
  C         0.9418194428        5.2157675799       28.2980102106
  S         6.0649142955       -2.5904260712       28.7431048392
  N         5.6927843040       -2.0278137218       30.1568958066
  C         5.1619478160        0.1021728303       31.2584351003
  H         4.6013383579        2.2002715098       31.7792585046
  H         7.4413719294        0.7133673243       20.2924206957
  H         7.8959406854        1.3454015204       18.8452418088
  C         6.3622049284        2.5550087238       19.6756898226
  H        10.5071980526        1.1614942260       19.5169037802
  H         9.7316964842        0.3223044939       20.8579983348
  C        11.0854917293        1.9200929409       21.4941728233
  H         9.6546551803        3.2679287580       17.7885196707
  C         9.7437489966        6.2878078273       17.1336971123
  H         0.3096210103        4.2942274073       28.3256100593
  H         0.3482766589        6.1551157482       28.2049744919
  C         1.7731842306        5.0884184482       29.5786814842
  C         4.8919774254       -0.6227357220       32.4309462308
  H         6.4771270452        3.1584014808       18.7753568876
  H         6.1791963287        3.1010024529       20.5543358934
  C         5.0661751987        1.8344020642       19.4057585617
  H        10.7481773517        1.8881251476       22.5176787926
  H        11.3271628904        2.9806892502       21.1234647044
  C        12.4132075755        1.1836895039       21.4635750546
  C         9.9910795053        7.6676584577       17.0827395165
  C        10.0133868658        5.4918259573       15.9106139384
  H         2.4003151308        4.2733523117       29.4438331551
  H         2.4965755662        5.9278709915       29.6685680265
  C         0.9166532592        4.9542707663       30.8110487788
  H         5.4213011880       -1.5666014666       32.5421497734
  C         4.5657008268       -0.1935376094       33.7091827581
  H         4.3700877400        2.3950196515       20.0473852113
  H         5.0066110505        0.8172562286       19.8364600079
  C         4.7446948048        1.8247821227       17.8733698401
  H        12.3677433165        0.2988372140       22.0614691806
  H        12.4233486772        0.7464301077       20.4624192189
  C        13.6454169276        2.0156146942       21.7837827671
  N         9.8119695698        8.5241238508       18.1668284495
  C        10.3916618912        8.3404370183       15.9083589895
  C        10.2913376636        6.1508749179       14.7059985284
  H         9.7485425130        4.4138547919       15.8998585159
  H         0.6134575118        5.9415322722       31.0441839149
  H         0.0719937743        4.3164826811       30.8254784794
  H         1.6405056423        4.6355356656       31.5064383233
  S         4.0238795633        1.3054826852       34.2989456958
  C         4.5082510820       -1.2939975824       34.7366372911
  H         4.7509741775        2.9263371791       17.5515483641
  H         5.5593874416        1.2377120091       17.3605990373
  C         3.3611386211        1.2165211287       17.5877940762
  H        13.6954726909        2.9369668526       21.2280207341
  H        14.4215486704        1.3897531767       21.3695451730
  C        13.7982995463        2.2613791982       23.2837162909
  S         9.8183274095       10.0663396905       17.5601852200
  N        10.4159849968        9.7134497069       16.0712750066
  C        10.4511161193        7.6400554699       14.6363781934
  H        10.3892458448        5.5618607372       13.7843338202
  C         3.9804554500        0.5694488653       35.8996536359
  N         4.0180454731       -0.7632921636       35.8776425961
  O         4.5885018137       -2.4802995923       34.5112529053
  H         2.8846403751        1.5728106547       16.6712312167
  H         2.6772218231        1.5372491141       18.3707969593
  C         3.4731310402       -0.3073543432       17.6918296466
  H        12.9311512376        2.8597257400       23.6189316892
  H        13.6171522129        1.2384173777       23.6649205158
  C        15.1937156645        2.7069440606       23.6954075552
  C        10.7164673425        8.4201776414       13.4590212938
  S         3.4139029073        1.2707509771       37.3405854963
  C         3.8774243514       -1.5270748757       37.1373998770
  H         4.3909017754       -0.7683585763       17.3468259505
  H         3.3936286014       -0.5814973748       18.7453624833
  C         2.3798416180       -1.1386314190       17.0026507723
  H        15.2593216264        2.8492936752       24.7797705809
  H        15.4894243586        3.6739066322       23.2995095734
  C        16.2713414014        1.8365981070       23.2952084030
  H        10.3573974860        9.3853145937       13.6546355562
  C        11.2197726727        8.0936291617       12.2330499057
  H         3.1021225656       -1.2751554205       37.9076416290
  H         3.6842729176       -2.5571534461       37.0010548516
  C         5.1131632997       -1.3931974861       37.9647852740
  H         2.5018202390       -0.7402111534       15.9685504372
  H         1.3417272285       -0.8916009643       17.4205887607
  C         2.6207273274       -2.6066727010       17.1961372772
  H        16.8693396476        1.6111106108       24.1776954671
  H        16.0729718260        0.9693339275       22.7570460853
  C        17.2087120437        2.5122369382       22.2542983951
  S        11.7572926288        6.5620409467       11.7190631257
  C        11.4415466241        9.1825449171       11.2663484646
  H         5.0436740805       -0.5893071881       38.6408722187
  H         5.1923049192       -2.3427784765       38.6002514261
  H         6.0274781873       -1.3295977047       37.2947857650
  H         2.1800109258       -2.9511108292       18.0533754840
  H         3.6667333757       -2.8569609715       17.0921671949
  H         2.2161114251       -3.1740370962       16.4326960261
  H        17.4909855357        3.4827587760       22.5464814532
  H        16.7746377335        2.3928206318       21.2731951095
  H        18.2130739171        2.0176004375       22.1952132479
  C        12.4003629290        7.4436747870       10.2519626562
  N        12.1449470351        8.8008190984       10.2113270491
  O        11.0447725967       10.2845866612       11.4415807401
  S        13.2154101808        6.5975529948        8.8849447808
  C        12.3319941561        9.6446209929        9.0048558659
  H        12.4226229010       10.7013200335        9.4160611354
  H        13.2342079885        9.3197039143        8.5544722879
  C        11.0801186335        9.5893323461        8.0701499015
  H        10.2355575752       10.1539700381        8.5576637004
  H        11.2001562345       10.2446622888        7.1697723337
  H        10.8077720299        8.6193886567        7.6180182003
  H        -3.3197479927       14.7752075760       16.3441760433
  C        -3.0419213492       13.6928314300       16.2903437228
  H        -3.9665228162       13.2404890650       16.5995140831
  C        -1.9680982934       13.3193562608       17.2694883341
  C        -2.7402997501       13.1246517585       14.9031074568
  C        -2.3471365801       13.9253126671       18.6701974354
  H        -1.9031692254       12.2662537996       17.4502365039
  H        -1.0772063102       13.7460647568       16.8669209366
  H        -1.7430787949       13.2394731740       14.7995870892
  H        -2.9071213913       12.0470106046       14.8921579892
  H        -3.1647939532       13.5861391490       14.0307059006
  C        -1.6158389068       13.0394297864       19.7653767715
  H        -3.4385792829       13.8390997167       18.9472055461
  H        -2.0557591069       14.9631879151       18.8603508599
  C        -2.0686762304       13.3807089771       21.2569851007
  H        -1.7230127256       11.9522587043       19.6958521571
  H        -0.5345350673       13.3061998619       19.6391244184
  C        -1.0656738049       12.6714554378       22.2163199960
  H        -3.0950696638       12.9330195735       21.3444188116
  H        -2.1731714090       14.3959138202       21.4692094034
  C         0.0910543106       13.5019271623       22.7226555392
  H        -1.5971700571       12.1889909181       22.9608532496
  H        -0.5197107950       11.8823330599       21.6079763900
  C         1.3292002967       12.7669660087       23.3534351892
  H         0.3482024538       14.1345636162       21.8947156873
  H        -0.2631852625       14.3316512175       23.3311711153
  C         1.7533877419       11.4646239142       22.6074013863
  C         0.8492567055       11.9558569045       24.5298544836
  C         2.5109887579       13.6901247798       23.7322960602
  C         1.4209095634       10.3094275385       23.3237970468
  C         2.1433499320       11.2168147977       21.3023496434
  C         0.9403026948       10.5873133548       24.6081647164
  C         0.3052550512       12.6066582790       25.7046851472
  H         2.7902363514       14.1403113783       22.7926489850
  H         2.2559642147       14.4800733218       24.3349876647
  C         3.7141601006       13.0575309807       24.4157354489
  S         1.8906260739        8.8433825451       22.4550458317
  C         2.1897059484        9.8377244546       21.0436310080
  H         2.3662491110       11.9728619983       20.6578416927
  C         0.4394219755        9.9115365420       25.7252564984
  H         0.2246071666       13.6606082745       25.6851707305
  C        -0.1691752437       11.9686988392       26.8189164015
  H         3.9187260781       12.1032205488       23.9956044111
  H         3.4968895262       12.7678424364       25.4585215236
  C         4.9762325891       13.9620026846       24.2766661534
  C         2.6355833940        9.1734545841       19.7835237823
  C        -0.1108741312       10.6082488821       26.8727348101
  H         0.3357189181        8.8555407137       25.5787869201
  C        -0.7657564642       12.3127407578       28.0276271352
  H         5.7555143529       13.5263390469       24.9230688839
  H         4.9184213733       15.0406538543       24.5655554788
  C         5.4227999317       14.1122341113       22.9091100549
  C         2.5575568120        7.7871871138       19.5054634302
  C         3.0384519977       10.0312565738       18.6725312772
  C        -0.5821225139        9.8655107236       28.0672055750
  C        -0.9209124931       11.1807701825       28.7819986290
  S        -1.0595269698       13.7828309352       28.8056352069
  H         6.0804329829       14.9951039234       22.8529164415
  H         4.6504559996       14.3211033183       22.2147113816
  C         6.1607587078       12.8631030785       22.3468264887
  N         2.4324786530        6.7168890349       20.4968021318
  C         2.9637037769        7.2033260842       18.3129426059
  C         3.3678993607        9.4905885787       17.4555439490
  H         3.1085401144       11.0736427883       18.8198824756
  C         0.4586204709        9.1493980857       28.8458139759
  C        -1.7773508343        8.9926285279       27.8776598413
  C        -1.2764863233       11.5192772554       30.0852767657
  C        -1.3800231672       12.8803531498       30.2952593678
  H         6.6543061243       12.3737566831       23.2056519319
  H         5.3624499449       12.1865121496       22.0144258604
  C         7.0572519738       13.1763607334       21.1686060835
  S         2.4060834284        5.3041445712       19.7370589019
  N         2.8018125513        5.8294579128       18.2694230188
  C         3.3617446764        7.9950620266       17.1845712504
  H         3.6583619843       10.1799132077       16.6262391220
  H         0.8648832679        8.4387935492       28.0893205036
  H        -0.0377204671        8.5674887671       29.7225326067
  C         1.6813009666       10.0186322240       29.3602373607
  H        -1.4935952757        8.1684871036       27.1508862305
  H        -2.0417928905        8.4947920988       28.8124607831
  C        -3.0300120946        9.7371883095       27.4307109671
  H        -1.3227602586       10.6805851123       30.7198303967
  C        -1.6861633293       13.6432430154       31.6008620940
  H         7.7921123853       12.3720379288       21.0099855825
  H         7.7189373858       14.0353925508       21.3511754390
  C         6.1842148084       13.2964641517       19.8418525986
  C         3.6229365724        7.3926591066       15.9576597298
  H         2.1244193098       10.7418358618       28.6822585139
  H         1.4535057026       10.7187277335       30.1515893188
  C         2.8520880007        9.2239887490       29.8329115689
  H        -2.9593996583       10.0598802905       26.4165321775
  H        -3.1867566663       10.6390961312       28.0185236989
  C        -4.3167496055        8.8685646291       27.4160196588
  C        -1.8125659839       15.0609341230       31.7031970023
  C        -1.9852189618       12.8880780580       32.8630821566
  H         5.6405724495       12.3825003781       19.7125821811
  H         5.5173543186       14.0843781749       19.9285321736
  C         6.9419382407       13.5766945789       18.5944542715
  H         3.4344548067        6.2974880359       16.0188561077
  C         3.6811200436        7.8659137334       14.6634551187
  H         3.3093791441        8.6615843479       29.0084798077
  H         2.3607736175        8.5407976315       30.4821463020
  C         3.8618179421        9.9699471150       30.6707482362
  H        -4.2727393711        8.0217797075       26.7680678040
  H        -4.5589603267        8.4705187264       28.4053918080
  C        -5.5098412714        9.7917624655       27.0907170256
  N        -1.5913382190       16.0480391746       30.6793160790
  C        -2.1284177956       15.6734026745       32.9479293010
  C        -2.2407025701       13.4927169436       34.0783160091
  H        -2.0572473269       11.7931348144       32.7081020287
  H         7.6756846996       14.3252792043       18.8284982910
  H         7.4220177917       12.5944607952       18.2720393673
  H         6.2687379275       13.9589496054       17.7558153136
  S         3.9183124271        9.4610068058       14.0968203183
  C         3.6102638420        6.8021578969       13.6399924410
  H         3.9068070089       10.9934436016       30.2700520061
  H         3.6160866637       10.0444053232       31.7509317582
  C         5.2406129884        9.3139992431       30.5653126518
  H        -5.2029922567       10.4685115741       26.3290651366
  H        -5.7605326718       10.2646271350       28.0009603933
  C        -6.6251519643        9.0287559945       26.4838164492
  S        -1.8996692759       17.5681873248       31.2566928953
  N        -2.2701544386       17.1015202365       32.8091476378
  C        -2.2919415178       14.9992717604       34.2166044653
  H        -2.2623406034       12.8579628922       34.9085091883
  C         3.9980552924        8.7603052715       12.4911849858
  N         3.8022786338        7.4358870144       12.3942519165
  O         3.7074407062        5.6030069986       13.8288882484
  H         5.9205107016       10.0740091488       30.8849390952
  H         5.5003135191        9.1567790802       29.4911379793
  C         5.2362759369        7.9361408714       31.1730687413
  H        -6.1978209181        8.3593755139       25.8128122383
  H        -7.2627506681        8.4133767630       27.1397481654
  C        -7.4524427867       10.1331040721       25.6585559900
  C        -2.6121205926       15.8745045858       35.3383707555
  S         4.8102536815        9.5697940078       11.1885386477
  C         3.8479469355        6.6497833943       11.1359174508
  H         4.9494394199        8.0636918398       32.2059886108
  H         4.4958856333        7.2555605448       30.7843296754
  C         6.4904587250        7.1043293209       31.1536008700
  H        -6.8789486631       10.3000142021       24.7752254768
  H        -7.4976920256       11.0728448567       26.1520877025
  C        -8.8387906281        9.6528040370       25.3416625615
  H        -2.3632043347       16.9342545024       35.3774114619
  C        -3.2541367568       15.4443765218       36.4615459400
  H         4.1935775757        7.1407595483       10.2367009105
  H         4.5963374040        5.9522692466       11.3315422316
  C         2.5319547190        5.9579168764       10.8372415294
  H         6.9495785031        7.1560511868       32.2240161422
  H         7.2381290600        7.5376986338       30.4726127233
  C         6.3299283169        5.6226346412       30.8089225648
  H        -9.1499029457       10.1533819317       24.4729532667
  H        -8.7717070391        8.5735143353       25.2900918008
  C        -9.8262831197       10.0294560126       26.4680423531
  S        -3.8212733980       13.8532764121       36.7662800347
  C        -3.6006143663       16.4627459063       37.5520845474
  H         2.5670758652        5.1109360446       11.4911849879
  H         1.7288558405        6.5613288312       10.9670960934
  H         2.6403195079        5.5726273830        9.8049875663
  H         5.9179664348        5.7127539977       29.8031841619
  H         5.6269778624        5.1804771181       31.5619955835
  H         7.2963307672        5.0403276981       30.7231438244
  H       -10.6301374762        9.2963386484       26.3833422046
  H       -10.3249033632       10.9815854068       26.4262902995
  H        -9.1756516388       10.0312069339       27.3683215217
  C        -4.2994396027       14.4598570274       38.4052184294
  N        -4.1633865222       15.8067364653       38.6338550745
  O        -3.2387441977       17.6418987181       37.5556331938
  S        -5.1752705688       13.5089107437       39.5508311856
  C        -4.4248309199       16.5321308348       39.8409529042
  H        -4.3771131126       17.5621625356       39.5506080151
  H        -5.5168456214       16.2962839453       40.1840790341
  C        -3.3244371812       16.1018766941       40.8555983926
  H        -2.3881259661       15.9801682243       40.3209465984
  H        -3.0341848782       16.8497727384       41.6257437939
  H        -3.6255387821       15.2127664176       41.4526346746
