352
 i =    70500, time =    70500.000, E =        25.1721633933
  H        12.0658126146        5.0270458835       31.9085766909
  C        11.1660413832        5.5923183107       31.6935900028
  H        10.4812653473        4.7618566691       31.3113109330
  C        11.5460993669        6.4905571409       30.5302353859
  C        10.6165109448        6.3445668596       32.8345096306
  C        12.2815890128        5.7612285854       29.3809072227
  H        10.6680012376        7.0273415447       30.1552968270
  H        12.3260126272        7.2441308684       30.8568000012
  H        11.1756090586        7.2579239014       32.9530381763
  H         9.5414887820        6.3326165589       32.6639772935
  H        10.6562497343        5.9137882398       33.8599707131
  C        11.2489185961        5.0281605395       28.5207583522
  H        13.0361838739        5.1040188793       29.7674894105
  H        12.7367079664        6.4301349113       28.6786088188
  C        10.4954127160        5.8030642136       27.4447046753
  H        11.8036109097        4.2722286491       27.9018917590
  H        10.5489593150        4.4851725980       29.2099895277
  C         9.7353038703        4.9275992878       26.4541751057
  H        11.3408583202        6.2602892735       26.8954538732
  H         9.8525256066        6.4947512703       27.9406450164
  C         8.5945830016        5.7187030003       25.8087786877
  H        10.4112828533        4.4687229799       25.6834808183
  H         9.3106696482        4.1178063482       26.9675590162
  C         7.5641357131        4.8564976985       25.0842764514
  H         7.8987510654        6.2934442192       26.4802338006
  H         9.0596533405        6.4823983866       25.2770236536
  C         7.2888161845        3.4928587101       25.8393796044
  C         8.0940024061        4.1396516484       23.9248659406
  C         6.2310840738        5.5602621198       24.7040929437
  C         7.5601850022        2.3866649530       25.0396281592
  C         6.7803596958        3.0835148859       27.0552675609
  C         8.0795605567        2.8140487670       23.8318398934
  C         8.6087301266        4.8599720414       22.8313659774
  H         5.7641224806        4.8623062428       23.9970750526
  H         6.5010849156        6.3432696640       24.0161347533
  C         5.2758196257        6.0103047787       25.7803775791
  S         7.1084991365        0.8307249428       25.8047002214
  C         6.6447992407        1.7583350835       27.1865466958
  H         6.4186412531        3.8150936194       27.7045726082
  C         8.4081392783        2.2175704739       22.6947350202
  H         8.5597987864        5.9285346964       22.6766014903
  C         8.9225906609        4.2174748677       21.6515748834
  H         5.2562942837        5.2640820560       26.5721802202
  H         5.4861326782        7.0373252383       26.2167527010
  C         3.8555273383        6.2308705893       25.1126470053
  C         6.1411190888        1.0956787924       28.4080125113
  C         8.8556092808        2.8519300409       21.5598252738
  H         8.4395625342        1.1393650916       22.7771508478
  C         9.2298501862        4.5961337176       20.3408121811
  H         3.6283015417        5.4663643104       24.3852010190
  H         3.8071177931        7.0305197182       24.4057485733
  C         2.7463002105        6.3044264292       26.1947875566
  C         6.0513937362       -0.3091169247       28.6065594207
  C         5.7124167373        1.9066067819       29.5382012602
  C         9.2776849515        2.1487792593       20.3060096214
  C         9.4900461866        3.4983804081       19.5027329144
  S         9.4967923422        6.0861339134       19.5796997376
  H         1.7854007101        6.6031603535       25.7001383412
  H         3.1875748419        7.1150938204       26.8704919160
  C         2.4089937712        4.9761947791       26.7914289432
  N         6.3650987078       -1.3295096675       27.7031078358
  C         5.6033333922       -0.8484678213       29.8074882087
  C         5.2471349561        1.3423284891       30.6896328552
  H         5.7398250968        2.9882148874       29.4253159117
  C         8.0712277367        1.3673287118       19.7942154678
  C        10.4757101569        1.2206915935       20.6069648555
  C         9.8441396184        3.8457087429       18.2184846302
  C         9.8082598255        5.1946319523       18.0455497785
  H         1.3085155200        4.8387783382       26.5846847868
  H         3.0630817783        4.1058687756       26.3863604425
  C         2.3844443657        5.0159614067       28.2498035317
  S         6.3913743915       -2.7760875360       28.4470155970
  N         5.7597333539       -2.2190778434       29.8355086461
  C         5.2937429401       -0.0884295739       30.9701279582
  H         5.0074442224        2.0154827901       31.4906173047
  H         7.6290813649        0.7806198754       20.5787116721
  H         8.3287963905        0.8392766685       18.8635112507
  C         6.9996777358        2.4472564734       19.1871499359
  H        10.7989956848        0.7880689380       19.6680713587
  H        10.3407875924        0.5401423811       21.3781450619
  C        11.7338615336        1.9456931594       20.9850386952
  H        10.0468299218        3.0041689020       17.5527521985
  C        10.1510763427        5.9584332873       16.7868661267
  H         1.7924095088        4.1262476512       28.5808432768
  H         1.7785417755        5.9277578594       28.5111141949
  C         3.7753929814        4.8355047299       28.9685833017
  C         5.0849630584       -0.7535832513       32.2395176159
  H         7.3976609446        2.8182477033       18.2232171471
  H         6.8383082902        3.3013544239       19.8891542805
  C         5.6439227187        1.7524964783       18.8238515503
  H        11.5917350181        2.3622130698       21.9388201763
  H        11.8953709485        2.7277354209       20.2876068709
  C        12.9890042640        1.1209693165       21.1907155987
  C        10.3568182172        7.3563416174       16.6683753947
  C        10.3575315600        5.2320149337       15.5330114609
  H         4.1897683264        4.0170189062       28.4834644292
  H         4.4784433106        5.6532133614       28.7601818071
  C         3.5710441396        4.6864723053       30.5200366683
  H         5.2125820463       -1.8551496666       32.2044569923
  C         4.8934119079       -0.3319609869       33.5382902299
  H         4.9316291480        2.5117563467       18.6830015781
  H         5.2712419628        1.1214333997       19.6716021481
  C         5.7184261227        0.8822408172       17.5095601487
  H        12.8874685474        0.4355417775       22.0322688883
  H        13.3714647429        0.6542104008       20.3646321553
  C        14.1291979237        2.1004924994       21.4830032387
  N         9.9381727185        8.2963849564       17.6084105677
  C        10.7474913724        7.9602205720       15.5145125857
  C        10.6603440062        5.8470387659       14.3120807592
  H        10.1660349457        4.2317889851       15.5905855318
  H         2.7312120032        4.2057346117       30.7081872755
  H         4.4304190885        4.2027090329       31.0611843938
  H         3.2761452090        5.6262837007       30.9586515118
  S         4.7331440079        1.3050636122       33.9922077992
  C         4.8697591488       -1.3460965115       34.6588466744
  H         6.2854764064        1.4652144913       16.7592100504
  H         6.2345469292       -0.0476139539       17.6510760359
  C         4.3426577862        0.7671887343       16.8451992511
  H        13.5895280859        2.8749926730       22.0323202521
  H        14.5390227483        2.4735282556       20.5546310001
  C        15.1995140773        1.4350985411       22.2838511205
  S        10.2420468281        9.8326648047       17.0246916537
  N        10.8714210812        9.3386768011       15.5992105214
  C        10.8804974849        7.3451450611       14.2377860079
  H        10.6928485306        5.2500245275       13.4188759990
  C         4.5695232939        0.6327489996       35.6148989539
  N         4.6429947045       -0.7000925206       35.7750699868
  O         4.9839957996       -2.5131167919       34.4900629789
  H         4.4023224211        0.2056897113       15.9365698096
  H         4.1356073081        1.8035801470       16.5732075451
  C         3.0922556780        0.2901930461       17.6588489557
  H        14.8732686769        0.6110246296       22.9035331862
  H        15.9925414209        1.0575090031       21.6486141817
  C        15.9815299707        2.4915198660       23.0100263897
  C        11.2669614854        8.0603293592       13.1437480763
  S         4.2057006838        1.6024622899       37.0882206862
  C         4.7462949095       -1.3395433316       37.0676784954
  H         3.2170562595        0.8167003171       18.5932836864
  H         2.1834341608        0.6156018038       17.1318889585
  C         3.1191847056       -1.2248024405       18.0716250199
  H        15.4869523507        2.9778128698       23.9031259397
  H        16.0914790628        3.3285634724       22.3610477753
  C        17.3117314446        1.8706448198       23.4116262023
  H        11.1300410249        9.0837807172       13.2020246024
  C        11.9054309363        7.7224121984       11.9493298881
  H         4.3199597195       -0.8554781851       37.9192811114
  H         4.1922915286       -2.2275329272       37.0311768663
  C         6.1764658254       -1.6371713893       37.4844466568
  H         2.3937018937       -1.3401800067       18.9449580820
  H         4.0794550772       -1.5811534735       18.4802208583
  C         2.6482802144       -2.1698637807       16.9466220059
  H        17.7341733627        2.3474509080       24.3354783985
  H        17.0664697813        0.8555566199       23.8009619587
  C        18.4494627155        1.8731417282       22.3880533840
  S        12.5124784429        6.2041477140       11.5382692184
  C        12.1452554927        8.8335222361       10.9772224055
  H         6.8049274769       -1.6996658420       36.6271614332
  H         6.3944172336       -0.9640789887       38.2733759134
  H         6.1258958820       -2.5775560572       37.9795063423
  H         1.7325908492       -1.8088442405       16.5159761229
  H         2.4307506654       -3.1128433635       17.3868890120
  H         3.3125259969       -2.3710626188       16.0705051983
  H        18.5290581852        2.8582021162       21.8207958617
  H        18.2995802320        0.9943037290       21.6569382451
  H        19.3971403201        1.6874325289       22.9179208127
  C        12.8943537433        7.0174107774        9.9397206218
  N        12.7068756801        8.3576489613        9.8690066339
  O        11.8103565220       10.0083056130       11.1368527020
  S        13.1667105752        6.2623261873        8.3388983354
  C        12.9314239780        9.1507871303        8.6209431720
  H        13.0275498861       10.1667682205        8.9771183443
  H        13.8725094339        8.8299157922        8.1679762575
  C        11.6411365303        9.1441718926        7.7140901890
  H        11.5403259098        8.2112514854        7.0193005028
  H        10.8573241794        9.1801144508        8.3794069353
  H        11.5846026530        9.9601037813        7.0883611348
  H        -3.2724014485       14.7624579048       16.4455310609
  C        -2.8633931386       13.7415798164       16.5118455505
  H        -3.7738415444       13.1060299881       16.6963247326
  C        -1.8438491935       13.6858042624       17.6806892403
  C        -2.1643593043       13.2768034766       15.2884582316
  C        -2.5270731946       13.6013663318       19.0078018536
  H        -1.3244928713       12.7669291700       17.4473768933
  H        -1.1271291513       14.4162121124       17.6630368690
  H        -1.7058303045       12.3204146506       15.3877585470
  H        -2.8832075545       13.1168601025       14.5765326555
  H        -1.4204567416       13.9812607697       14.9954837473
  C        -1.6009549849       13.1521120644       20.1506825505
  H        -3.3089135905       12.8950031648       19.0633474049
  H        -3.0658895511       14.5276914306       19.1819620549
  C        -2.3018732044       13.3250281763       21.5370680132
  H        -1.2311647469       12.1170942333       20.0252676651
  H        -0.7117381043       13.7169537626       19.9765549577
  C        -1.3323748934       12.7083706823       22.5789443751
  H        -3.2904259550       12.7746082066       21.5680335025
  H        -2.4902938721       14.3697580165       21.6627371311
  C        -0.0852021407       13.5642267776       22.8712255019
  H        -1.9084771072       12.4768288134       23.4334639441
  H        -0.9497916850       11.7060119578       22.3217439119
  C         1.1494845651       12.8452053009       23.4432544794
  H         0.3717793090       14.0000491853       21.9317206120
  H        -0.3398752103       14.3958070577       23.4322292341
  C         1.5615168903       11.5694360054       22.7091137199
  C         0.8652407675       12.0618027599       24.7111675685
  C         2.3765227520       13.7942600865       23.5479028510
  C         1.3160146771       10.4160893049       23.4171635729
  C         1.9188352087       11.2648290032       21.3964935256
  C         0.9796946752       10.7449335054       24.7350665767
  C         0.5396290006       12.6983179377       25.8774806726
  H         2.6935908228       14.3053062445       22.5826192298
  H         2.0860265876       14.5314571003       24.3243404335
  C         3.6213914878       13.0764990890       23.9885324452
  S         1.6085773972        8.9537438791       22.5079508564
  C         2.0641169477        9.9275902498       21.1249633064
  H         2.2048309407       12.1108225401       20.7627813854
  C         0.8307827625       10.1266438338       25.9358853529
  H         0.4565552707       13.7517047822       25.9938978615
  C         0.3111089591       12.0876907114       27.0623518430
  H         3.8780829866       12.2836093547       23.3395935982
  H         3.4278128089       12.6603768873       25.0049080663
  C         4.8572944267       13.9436248363       24.1385097576
  C         2.5270902772        9.2575524127       19.9019113442
  C         0.4422969205       10.7617710591       27.1109104345
  H         0.8733611863        9.0169010726       26.0635901660
  C        -0.1041299968       12.3881831374       28.3358054879
  H         5.6564766168       13.5823177890       24.7603211352
  H         4.5707379356       14.8698853652       24.5769524265
  C         5.6256964638       14.2638370489       22.8940409842
  C         2.6361307083        7.8746894299       19.7033706797
  C         3.0640473021       10.1467493455       18.8037453492
  C         0.0448801706        9.9753498804       28.2685273314
  C        -0.1850384475       11.2839202711       29.1221541277
  S        -0.6200521904       13.8440509378       29.1502306174
  H         6.5052454933       14.8541523194       23.1679188079
  H         4.9434514270       14.8128525114       22.1884138126
  C         6.0771800786       13.0504031085       22.1059020722
  N         2.1295975582        6.8803205271       20.5880588201
  C         2.9772735902        7.4079123498       18.4817033341
  C         3.5586393590        9.6235259783       17.5899189781
  H         3.0507360762       11.2487948854       18.9495785460
  C         1.2589329613        9.1920647738       28.7370224273
  C        -1.2454497672        9.2189402049       28.1516824740
  C        -0.6164673106       11.5946921467       30.4612379736
  C        -0.9255202815       12.9360311769       30.6020379566
  H         6.2835705025       12.2529883693       22.7691857038
  H         5.3416282251       12.5945784186       21.5681762210
  C         7.2822779291       13.2892296789       21.1463411332
  S         2.3877045072        5.4567129055       19.9831177114
  N         2.8877485493        6.0016153996       18.4569328503
  C         3.3514449902        8.1708850603       17.3275365504
  H         3.8807171906       10.3206431892       16.8493973303
  H         1.5620686521        8.4353744062       28.0636461050
  H         0.8019305556        8.5864864277       29.5482103215
  C         2.3573442257       10.0315981934       29.3242706491
  H        -1.0901473149        8.4504263044       27.4495061132
  H        -1.5519245191        8.7139674265       29.1327809535
  C        -2.4614346305       10.1159448399       27.8445761880
  H        -0.6255678203       10.8437844086       31.2547793381
  C        -1.2763715940       13.6355503405       31.8448246831
  H         8.0117762463       12.5142334082       21.1864284263
  H         7.8151188032       14.1157615542       21.5022560630
  C         6.8771512854       13.5021082433       19.6990027267
  C         3.5961086324        7.5414265967       16.0812114329
  H         2.6006279525       10.8785611992       28.6546261077
  H         2.0200020759       10.4726845622       30.2370810807
  C         3.5923235851        9.2240978395       29.5751683211
  H        -2.3239226620       10.8835674966       27.0917936488
  H        -2.8575754068       10.6153878623       28.6755399918
  C        -3.6619181535        9.1885597806       27.4501114294
  C        -1.5306789118       15.0193927795       32.0064080439
  C        -1.4026264278       12.8431030735       33.1042476529
  H         6.0614373362       12.8870933320       19.4325736687
  H         6.5406075926       14.4944669818       19.5351513131
  C         8.1488550950       13.3524455924       18.8577856889
  H         3.6846582427        6.4298306977       16.1244550155
  C         3.8910107838        7.8916529786       14.8049180313
  H         3.8244229555        8.8658445442       28.6189442313
  H         3.2400443480        8.3822169358       30.1939738655
  C         4.7237534869       10.0261603315       30.1126235382
  H        -3.5559080931        8.4559790598       26.6748090308
  H        -4.0320420167        8.7278284724       28.3566298573
  C        -4.9825936962       10.0617837235       27.2704466517
  N        -1.2170526984       16.0092527167       31.0757039371
  C        -1.8368730076       15.5756817913       33.2211148901
  C        -1.9074127703       13.3698951110       34.2784012901
  H        -1.3867562838       11.7702846545       32.9732590741
  H         8.9435663009       14.0668219149       18.9578972033
  H         8.4628240096       12.2597856312       19.0073269715
  H         7.7078212486       13.3829053470       17.8317689507
  S         4.1855255095        9.4923416273       14.3338268796
  C         4.0011433144        6.8110028383       13.7686556025
  H         5.0192117225       10.8481633431       29.4640848102
  H         4.5174205937       10.4017143632       31.0547385746
  C         5.8973644077        8.9914535202       30.2604754033
  H        -4.6880096493       11.0783886805       26.8373444566
  H        -5.3283033254       10.3893928177       28.2209815721
  C        -5.9548885817        9.4789642945       26.2989469106
  S        -1.4624859331       17.4784774640       31.7135416560
  N        -1.9825335227       16.9670468387       33.1354468024
  C        -2.0361252100       14.8097569553       34.3995567766
  H        -2.1830771770       12.7162183608       35.0634838473
  C         4.2973053091        8.7916755170       12.7105134471
  N         4.0912394402        7.4366840625       12.6088839695
  O         3.8285877570        5.5961076287       13.9334363565
  H         6.6485916489        9.4785660840       30.8323237625
  H         6.3024643596        8.8033051232       29.2700878461
  C         5.5912934831        7.6534686537       30.9326789131
  H        -5.5142857868        8.8342925252       25.5442973899
  H        -6.6796460137        8.7785274768       26.8430139641
  C        -6.9013914602       10.5195140728       25.6526540077
  C        -2.3663983468       15.5440403397       35.5998575482
  S         4.8891664604        9.5511271812       11.1878505885
  C         4.1712826690        6.6177079721       11.3849452972
  H         4.8771749406        7.8178284510       31.6930375352
  H         5.0501386721        6.9919058442       30.2779439957
  C         6.8612388466        6.8953129936       31.4623746461
  H        -6.4557427623       10.9160646674       24.8163360797
  H        -7.0498265688       11.3956613303       26.3260616771
  C        -8.1600195356        9.9461943827       25.2390224053
  H        -2.0488580978       16.5449419666       35.5439839477
  C        -2.8944578648       15.1786292690       36.8358102292
  H         4.9063084737        6.9228853353       10.7465313895
  H         4.3834300984        5.5599268804       11.5086277072
  C         2.8019870267        6.7477038212       10.8362853764
  H         6.6338966811        5.8528071762       31.7124160915
  H         7.2738722097        7.4504565441       32.3120460787
  C         7.9438798275        6.7353935710       30.4238197519
  H        -8.5478068755       10.6499253190       24.5229412593
  H        -8.0072449489        8.9508364708       24.8753013154
  C        -9.0993104783        9.8217056709       26.4158855352
  S        -3.4807055522       13.6344900852       37.2129640235
  C        -3.0242191290       16.1899680905       37.8693315178
  H         2.6420584344        5.9128688780       10.1405487158
  H         2.0178822406        6.8269785502       11.5867530072
  H         2.6421700793        7.6736637954       10.2898852573
  H         8.6437075316        5.9679478097       30.7763372343
  H         8.5219353393        7.6372586481       30.3281593717
  H         7.4837663241        6.5381706002       29.5197285284
  H        -8.7844713189        9.2065856022       27.2893840421
  H       -10.1205339818        9.4387677422       26.0816763497
  H        -9.3055518338       10.8854347868       26.6564549825
  C        -3.8969425018       14.2834870149       38.8105130325
  N        -3.6076986603       15.6292301828       38.9574638472
  O        -2.6285934246       17.3502987843       37.7171111877
  S        -4.6702903786       13.3239011494       40.0923855448
  C        -3.8112927913       16.4150579838       40.1382487599
  H        -3.8516248451       17.4908029790       39.8267355463
  H        -4.7307790874       16.2470713678       40.7026803177
  C        -2.6589523930       16.3388969660       41.1565955309
  H        -2.3810001002       17.3430998166       41.5105060408
  H        -2.9775862014       15.8199926633       42.0844873527
  H        -1.7494992878       15.8110708482       40.7213851671
