352
 i =    76700, time =    76700.000, E =        25.0431876505
  H        10.3729002786        7.0638104265       32.0133061737
  C        11.1392079705        6.3658633867       32.2003517562
  H        11.9128476769        7.0318115355       32.3506638546
  C        11.3422992802        5.5745165664       30.9265453234
  C        10.8600979342        5.5055074436       33.4549170948
  C         9.9955104886        4.9331114491       30.4492669080
  H        11.7840553113        6.3268839048       30.2348859232
  H        11.9915521898        4.7522543586       31.2311908102
  H         9.8329991544        5.6315388468       33.8813052562
  H        10.9068040512        4.4229504856       33.2741595335
  H        11.6643525771        5.6642546136       34.1921167307
  C         9.3441696509        5.6768742714       29.2250927051
  H         9.2319410664        4.9490400428       31.3299688898
  H        10.1585489322        3.8349936235       30.2328583592
  C        10.1058853481        5.4424383340       27.9321090114
  H         8.2429303102        5.5073780533       29.0921940336
  H         9.2676922820        6.7890762843       29.4384091412
  C         9.2714713136        4.7716113148       26.9154478906
  H        10.9661247218        4.7241538492       27.9994754373
  H        10.5432754645        6.3979352993       27.6376779103
  C         8.1675070165        5.6763408705       26.4765065572
  H         9.9106155552        4.6296135337       26.0570882352
  H         8.8485744767        3.8867435948       27.3571203504
  C         7.0926089632        4.8778008301       25.6912865586
  H         7.7971634255        6.3424830669       27.2682718393
  H         8.7896538904        6.3573088658       25.7895556542
  C         6.6994836745        3.5347617587       26.3982771787
  C         7.5453770340        4.1286827297       24.4756698243
  C         5.8178391126        5.7033775313       25.2556399609
  C         6.8369296943        2.4493125254       25.5324166170
  C         6.1359273027        3.1139812185       27.6470327264
  C         7.3734781500        2.7959910590       24.2692792411
  C         7.9431334027        4.9146118443       23.3224551790
  H         5.3750886927        5.1550933636       24.4795723171
  H         6.1701191487        6.6320550294       24.7625000345
  C         4.7888588774        6.0219251344       26.3519315903
  S         6.2934157470        0.9445410930       26.2635053089
  C         5.9085755192        1.7697460081       27.7840773244
  H         5.8545327337        3.8232127146       28.3815566057
  C         7.7125304359        2.2220490478       23.0596410388
  H         7.8985882656        6.0186803472       23.4440405607
  C         8.2522842451        4.3583497472       22.1660566765
  H         5.0497244082        5.4986156366       27.3458815140
  H         4.8024816870        7.0154465761       26.6497267119
  C         3.3408742407        5.4836566306       25.9707424613
  C         5.5898176599        1.0771389761       29.1218808989
  C         8.2089733519        2.9893803506       21.9622730468
  H         7.5750857386        1.1470160102       22.8631205942
  C         8.7234609114        4.7434514834       20.9391511712
  H         3.2315618382        4.4685254968       26.1551594286
  H         3.0742387316        5.6202981165       24.9115166123
  C         2.2433078903        6.1259096377       26.8697051265
  C         5.6780774471       -0.3402809241       29.4420789175
  C         4.9350380019        1.9058360345       30.1495162187
  C         8.5513878978        2.2861534782       20.6603716880
  C         8.8237110394        3.6704871622       20.0755631608
  S         9.0523173757        6.2573564262       20.1614356277
  H         1.3451072125        6.2849175143       26.3083855139
  H         2.5294384025        7.1045962849       27.2425884084
  C         1.8661864089        5.2035563563       28.1019526374
  N         5.9638978704       -1.3525395724       28.4988945216
  C         5.4285561769       -0.8361757415       30.7369887651
  C         4.6002133822        1.3854812233       31.3913053401
  H         4.5825040496        2.8690637028       29.9313851926
  C         7.3252972234        1.5556554196       19.9759403709
  C         9.7326789511        1.3162723290       20.8928513209
  C         9.2758967573        4.0221032150       18.8423837907
  C         9.3999598340        5.3931364088       18.7088942130
  H         1.0373633419        4.6467834545       27.7564157746
  H         2.7415491258        4.5214999988       28.3067560690
  C         1.5547814040        5.9755715915       29.4053502547
  S         5.9711202552       -2.7839412647       29.3145016656
  N         5.5242387533       -2.1841185391       30.7999929332
  C         4.8780753942       -0.0336812425       31.7788641655
  H         4.1938384228        2.0754196770       32.0610676167
  H         7.0009145958        0.6793503136       20.5894900523
  H         7.6992145862        1.0824416088       19.0572585475
  C         6.2118088611        2.5356391153       19.5460332652
  H         9.8462015087        0.8332886038       19.9642337050
  H         9.4553852571        0.5726368144       21.6597397785
  C        10.8804927177        2.0686705682       21.4420688526
  H         9.4895974582        3.3234369432       18.0787605936
  C         9.7767858965        6.1897311405       17.4821418912
  H         0.7908460894        6.7831754719       29.2162796709
  H         2.4735784684        6.5210147320       29.6203224716
  C         0.9579734477        5.1642493791       30.5807587314
  C         4.5926648130       -0.6883358286       33.0191251818
  H         6.5857057593        3.1710187951       18.7665488252
  H         6.0740403256        3.3012775843       20.3350873286
  C         4.8814491520        1.8923503166       19.2273859876
  H        10.6230625848        2.5328578580       22.3983687081
  H        11.0500957161        2.8923095158       20.6490023199
  C        12.1650444660        1.2778137339       21.7195701919
  C         9.9516304671        7.5606069698       17.3560412921
  C        10.0824106670        5.3591736671       16.3059949667
  H         0.1939682648        5.7298834285       31.1455844292
  H         0.4133019291        4.2962138146       30.0599469345
  C         2.0891584572        4.6397374536       31.5938630215
  H         4.6747227215       -1.7588252287       33.0632833655
  C         4.3354668144       -0.1279757390       34.2465136959
  H         4.1591483882        2.7623859096       19.1773457305
  H         4.5368419111        1.2074098945       20.0137986507
  C         4.9538246654        1.0837632151       17.8634723930
  H        12.0975826264        0.6518998526       22.5841262448
  H        12.3668522969        0.6143711781       20.8742586211
  C        13.4024677992        2.1618812076       21.6794715851
  N         9.7833712661        8.5325713190       18.3621729552
  C        10.2659283806        8.1726547623       16.1589399290
  C        10.4395664457        5.9060726475       15.0927197432
  H        10.0387290367        4.2948566675       16.4025049192
  H         2.6358521829        5.4228144253       32.1842992599
  H         1.5117112430        4.0392897457       32.2852142488
  H         2.8404326503        3.9259604778       31.1475179856
  S         4.1156227000        1.5461038407       34.6541998331
  C         4.2018806118       -1.0869236705       35.3661748697
  H         5.1519825461        1.6037099027       17.0330379348
  H         5.6541503755        0.3039031836       17.9639202353
  C         3.5756496396        0.4758272999       17.6598729145
  H        13.1773772162        3.0887441531       22.2202501797
  H        13.6662426203        2.4861286209       20.5994111064
  C        14.5666567895        1.4821019021       22.2726917496
  S        10.1106733173       10.0063109547       17.7683440311
  N        10.2173546428        9.5444673292       16.2368799743
  C        10.5728298857        7.4106331719       15.0060036428
  H        10.7262173925        5.3008048232       14.2789507354
  C         4.0549465626        1.0394806871       36.3102109384
  N         3.9214021023       -0.3477067226       36.4654659739
  O         4.4317980834       -2.2912773745       35.3328568284
  H         3.5349377480        0.3154747928       16.5792414563
  H         2.7845449324        1.2577732770       17.8695097002
  C         3.3283683150       -0.7482230824       18.5424285067
  H        14.2667364033        0.6806629646       22.8695284923
  H        15.0349435536        0.9575799075       21.4222620747
  C        15.4845989286        2.3861199908       23.1115571382
  C        10.9837092624        8.0793414764       13.8512150083
  S         3.7355030302        2.0402266319       37.7369809369
  C         3.8677115859       -0.9963689056       37.7684271824
  H         4.1521756087       -1.4474068092       18.4165932210
  H         3.4831125558       -0.4044452905       19.5738953037
  C         2.0793958282       -1.5392354856       18.2883415611
  H        14.8242133915        2.7369878079       23.9524226280
  H        15.7788051828        3.2804050962       22.5922357123
  C        16.7738021288        1.6948859676       23.5149733878
  H        10.7304925285        9.1208214067       13.8935253572
  C        11.3583166944        7.6822446004       12.5842131684
  H         3.1827269429       -0.4507379370       38.4194589439
  H         3.4315333577       -1.9569455850       37.6345003181
  C         5.3245926477       -1.1831461933       38.1934265191
  H         1.1959276159       -0.8808300322       18.1147680666
  H         1.9134879675       -2.0997113472       19.2073798976
  C         2.2381668119       -2.5938666671       17.1765099930
  H        17.1273544125        2.2494281558       24.3960587683
  H        16.5407975330        0.6718308183       23.7837822534
  C        17.8554492818        1.7697877142       22.3869599959
  S        11.7521493333        6.1030535262       12.0460962065
  C        11.5361756888        8.7388196166       11.5681423204
  H         5.8531299565       -1.6980231407       37.3758891174
  H         5.7057802579       -0.1693067881       38.3365399515
  H         5.3132054232       -1.7509164848       39.0836669437
  H         2.0894520801       -2.0747221354       16.2033647206
  H         1.5648592414       -3.4497944132       17.3247398973
  H         3.2046021763       -3.0924314310       17.0129528678
  H        18.1036767885        2.7696076705       22.1329180674
  H        17.5739723561        1.1870154578       21.4985743542
  H        18.7266304728        1.2423899698       22.6686002850
  C        12.2435363335        6.8698292840       10.4849702684
  N        12.1589828856        8.1930545610       10.4731496293
  O        11.3561605860        9.9172027424       11.7051476939
  S        12.5296508025        6.1204437940        8.9067152518
  C        12.5209646670        8.9664062186        9.3370684108
  H        12.7082751609       10.0099973046        9.5870301923
  H        13.3426436526        8.5462582842        8.8431885014
  C        11.1942246119        9.1579743498        8.5092490911
  H        11.5161258914        9.2611662698        7.4532337764
  H        10.4514338724        8.3881176217        8.5684563117
  H        10.7150128260       10.1077521143        8.7512774991
  H        -3.2102935647       14.5971766762       16.3267548511
  C        -3.2660018435       13.4695769149       16.3315108614
  H        -4.2623842318       13.1328798314       16.6581640641
  C        -2.3192883362       13.0057122803       17.3739809651
  C        -2.7056499858       13.0058306812       14.9574034823
  C        -2.4299657224       13.9431039078       18.5243668068
  H        -2.4819752138       11.9822131518       17.7075094670
  H        -1.3116962330       13.0795589517       16.9903237179
  H        -2.6788405953       11.9364534176       14.9635175353
  H        -3.2194728176       13.3502697076       14.0764822059
  H        -1.7377958275       13.3561134681       14.8704905995
  C        -1.5453737523       13.5245626462       19.6933807795
  H        -3.4263632551       14.1308636704       18.8499673791
  H        -2.0025207121       14.9019856986       18.3601975873
  C        -2.3214577859       13.2541469093       21.0663622311
  H        -0.9287899119       12.6589021424       19.4558987929
  H        -0.8549693304       14.3474606867       19.8234277181
  C        -1.4611549059       12.6009069556       22.1620149981
  H        -3.0910405408       12.5070444835       20.8530078326
  H        -2.5625667180       14.2417108533       21.4883337232
  C        -0.3306790118       13.5891636142       22.3847137824
  H        -2.0520030780       12.4979267190       23.1157366192
  H        -1.0363610806       11.6816986359       21.8868700169
  C         0.8727954473       12.8942618878       23.1702780639
  H         0.1368819706       14.0491794192       21.4873796480
  H        -0.6665757572       14.3961922891       23.0555725940
  C         1.2978238513       11.5117694719       22.5801262742
  C         0.3519488421       12.2110864222       24.4804539457
  C         2.0940869560       13.8248104462       23.3728616723
  C         1.0516316361       10.4702683967       23.4358503722
  C         1.7700075875       11.1239063975       21.3147907919
  C         0.4575702922       10.8736433581       24.6325912549
  C        -0.1187887205       12.9712893482       25.5577912268
  H         2.3992016719       14.3263566038       22.4500043182
  H         1.8432207035       14.5463436040       24.1194649667
  C         3.3622763891       13.0681762413       23.8745381755
  S         1.4390968912        8.9599580145       22.6365880102
  C         1.8694295808        9.7702056145       21.2183136562
  H         2.0325281636       11.8699141519       20.5740146421
  C        -0.0229206834       10.2976859727       25.7478640625
  H        -0.2258607108       14.0599229079       25.4652846927
  C        -0.5112947867       12.4410632421       26.7298146489
  H         3.4627352756       12.4168912279       23.0848204484
  H         3.0406345736       12.4667866165       24.6823915242
  C         4.7075367137       13.7706232777       24.1807932379
  C         2.3619857344        9.1066272572       19.9572856445
  C        -0.4988436753       11.0797081762       26.8218719277
  H         0.0507599363        9.2427070241       26.0163487407
  C        -0.8857510927       12.8577224210       27.9940034539
  H         5.3095586854       13.1756938435       24.7856188835
  H         4.4794857045       14.6334817476       24.7846208662
  C         5.4219455736       14.1963939430       22.8756971853
  C         2.4392582767        7.7298330525       19.7317102695
  C         2.8189346591       10.0083849707       18.8652210297
  C        -0.9268545619       10.3658804860       28.0957207312
  C        -1.0905782967       11.7504061883       28.8225070515
  S        -1.0637405642       14.3100711095       28.8021893705
  H         6.2189616438       14.9641390316       23.0489903544
  H         4.7170435663       14.7058235557       22.2282890673
  C         6.0198779350       13.0399214838       22.1620764683
  N         2.1110702407        6.7563309185       20.6673148931
  C         2.7615243890        7.2548332264       18.4905670395
  C         3.1154917390        9.4847636292       17.5678392668
  H         2.7872187535       11.0580921138       18.9913496224
  C         0.2287369207        9.5581754666       28.7126938793
  C        -2.1416073158        9.5460944167       27.9040741252
  C        -1.5913019298       12.1392472665       30.0631514157
  C        -1.5181219614       13.4914878254       30.2637696344
  H         6.4355372981       12.3525236156       22.8423433500
  H         5.1725955307       12.5105747767       21.6500595534
  C         7.0522773974       13.3408468069       21.0398650879
  S         2.2213422071        5.3072659985       19.9337230498
  N         2.7359464463        5.8579575046       18.4615205903
  C         3.1328142158        8.0273844368       17.3394049963
  H         3.3190718400       10.1381046046       16.7336699323
  H         0.3597816777        8.6080230354       28.2192376895
  H        -0.1372807978        9.3908676705       29.6851540404
  C         1.5250879714       10.2260110661       28.9110526585
  H        -1.9592201199        8.8491907681       27.0974766766
  H        -2.3672314817        8.8925746572       28.7429749708
  C        -3.3732860953       10.3977152480       27.5439494009
  H        -1.7763040053       11.3619278330       30.7543573042
  C        -1.8687209945       14.2198564967       31.5014859433
  H         7.7288396559       12.4882695651       21.0407543377
  H         7.5839348531       14.2809068918       21.1133056154
  C         6.3466026386       13.5830761676       19.7117652258
  C         3.3503436155        7.3906636167       16.0213270624
  H         1.8930820740       10.5192715746       27.8952016706
  H         1.4342586572       11.1794553554       29.4379235128
  C         2.5531178679        9.4043141366       29.7173745264
  H        -3.2179047300       10.8772165929       26.5370486980
  H        -3.4987433320       11.2393642111       28.3149773014
  C        -4.6544421088        9.5675998384       27.5413580886
  C        -1.8560932475       15.6173229199       31.7170055418
  C        -2.1190533794       13.3626113241       32.6749956220
  H         5.3680929236       13.0416703371       19.7340532300
  H         5.9292477206       14.6275585960       19.6623492093
  C         7.1850193373       13.1599814843       18.5447305007
  H         3.2495135878        6.2824822645       15.9659536609
  C         3.6847815019        7.8487782067       14.7836859977
  H         2.8962278130        8.5760541389       29.1704987523
  H         2.1713881955        9.1561538676       30.6849548901
  C         3.7816343344       10.2958469745       29.9009593726
  H        -4.5528911229        8.6706908908       26.9445598979
  H        -4.7130979989        9.2891878341       28.6253268956
  C        -5.9054931002       10.3464037613       27.2130305478
  N        -1.6904040774       16.6078821780       30.7465413018
  C        -2.0521307939       16.1438539360       32.9562783943
  C        -2.2196316740       13.8639475033       33.9449228970
  H        -2.1074947323       12.2943497593       32.4900890457
  H         7.8717359072       12.3632335680       18.8050579937
  H         6.5335056267       12.7670844757       17.7910326414
  H         7.8759287293       13.9278532960       18.1622042530
  S         3.8756832651        9.4847401678       14.2557925425
  C         3.9400252768        6.7628942301       13.7202742229
  H         4.2324110378       10.3386154688       28.8538275187
  H         3.4032168832       11.2259951616       30.3665996975
  C         4.8068156603        9.7660933237       30.8798430513
  H        -5.7988232124       11.4143357379       27.0328739479
  H        -6.6232772773       10.2999337248       28.0662153970
  C        -6.5886274127        9.7472577106       25.9718359049
  S        -1.6701628899       18.1124043938       31.4735488680
  N        -2.1739628484       17.5743220655       32.9698667859
  C        -2.1990201525       15.3539914303       34.1572526072
  H        -2.3092016483       13.2369978755       34.7497383970
  C         4.1413915546        8.7490667088       12.6688712978
  N         4.3121033755        7.3905001604       12.6361315279
  O         3.7869682957        5.5929811832       13.8814174977
  H         4.2650755914        9.6677780427       31.8371546503
  H         5.5660578884       10.5181305834       30.8581728239
  C         5.3326579217        8.3344914061       30.4845109595
  H        -5.7457327974        9.7843943141       25.2781254627
  H        -6.9555378732        8.7498373617       26.2524105777
  C        -7.6928349392       10.6360206371       25.2247591262
  C        -2.3975314196       15.9683108843       35.4532293533
  S         4.9120888623        9.6321542702       11.3601785643
  C         4.4242409965        6.5293900581       11.4126125013
  H         4.4358137896        7.6291759352       30.4119466475
  H         5.6601737494        8.2701017400       29.4513022002
  C         6.2076650807        7.7588947909       31.6512570978
  H        -7.2500447465       11.0104357558       24.3471392114
  H        -7.9848088709       11.4388057506       25.7648123331
  C        -8.9845802253        9.7662579901       24.9404776187
  H        -2.1767945337       16.9785855384       35.4857571669
  C        -2.9897917606       15.5521941669       36.6025352786
  H         5.0044150157        7.1049802988       10.6556984515
  H         4.9800905671        5.6114932556       11.5721580304
  C         3.0267196054        6.3442163354       10.8116689969
  H         6.0570777571        8.3863691472       32.5192358911
  H         7.2685309556        8.0281659092       31.5019000657
  C         6.1189088053        6.2339144179       31.8379091591
  H        -9.5934151499       10.2453935488       24.1263670856
  H        -8.5700696318        8.8271049156       24.4846968573
  C        -9.8510132608        9.5403361851       26.2415125599
  S        -3.6160766838       13.9621275731       36.9259384125
  C        -3.0775320491       16.5003695938       37.7300015286
  H         2.9579083014        5.5365112062       10.0895581574
  H         2.2971049923        6.2340265263       11.5736428764
  H         2.6438261072        7.1524781695       10.1524981134
  H         6.4024019458        5.6577630536       31.0189546772
  H         5.1177419489        5.8539280423       32.1139845267
  H         6.7603844964        5.8822845744       32.6901333014
  H       -10.1378785673       10.4781362440       26.6785435614
  H        -9.4464188486        8.8816006570       27.0069350596
  H       -10.7981035650        9.0794817894       25.9707355512
  C        -3.9976896982       14.5299121685       38.5377187785
  N        -3.7686167975       15.8755796958       38.7408483672
  O        -2.8569027708       17.7093496898       37.6917697918
  S        -4.5738646839       13.6251503907       39.9323101246
  C        -4.0120056127       16.5847607525       39.9517772910
  H        -4.0642845948       17.6669010698       39.8668637641
  H        -4.8752844895       16.2101974335       40.5192682201
  C        -2.8291373703       16.3635996007       40.8696382051
  H        -2.3501101138       17.2344651950       41.2280975493
  H        -2.9441442314       15.6570823248       41.6372167058
  H        -1.9795105598       15.9479624339       40.2795832466
