352
 i =    80000, time =    80000.000, E =        25.1441636594
  H        10.3328229397        7.1880459969       32.1972229749
  C        11.3160411190        6.8195471947       32.1618304777
  H        11.9456059886        7.5889956303       32.5567583534
  C        11.8712069162        6.4126540428       30.8930904783
  C        11.2978277633        5.6006257981       33.1452685665
  C        10.8482258090        5.7094329118       29.9978964177
  H        12.1665472203        7.3484125112       30.4025772725
  H        12.7493199334        5.7613017377       31.0186900907
  H        10.9319124706        5.8397568056       34.1599561185
  H        10.5989849479        4.8913172901       32.7623166054
  H        12.2492511977        5.1235249931       33.2264879427
  C         9.9847767232        6.4665691608       29.0056569481
  H        10.1124688959        5.2855942890       30.7209832383
  H        11.2241177286        4.8399331299       29.5205359618
  C        10.5419328941        6.2972234043       27.5473192813
  H         8.9726441398        6.1388138426       28.9514967956
  H        10.0478837735        7.5152451700       29.2504574077
  C         9.6265751961        5.4860051282       26.6400624730
  H        11.5409186358        5.9794586666       27.5274411402
  H        10.7028047940        7.3046084838       27.1134556828
  C         8.4375076751        6.2510907397       26.0886749666
  H        10.2388707209        5.1565032485       25.8394597549
  H         9.2804031155        4.6021328057       27.2200814724
  C         7.4455347157        5.4448982951       25.1897235463
  H         8.0206731031        6.9886994265       26.7904106718
  H         8.8517632912        6.8594890673       25.4110867883
  C         7.1655016526        4.0690858071       25.8751939287
  C         7.9382375647        4.7532588539       23.9635788723
  C         6.0667609346        6.1921305426       24.8316362175
  C         7.3641025901        3.0293459870       25.0140852908
  C         6.6121775389        3.6637890928       27.1075289269
  C         7.8165446825        3.4566212660       23.8283654603
  C         8.4492622963        5.4441627551       22.8435135061
  H         5.5322621055        5.4809445971       24.1925712629
  H         6.2407420553        7.0763352322       24.2501771310
  C         5.0834478128        6.5494590470       25.9142267626
  S         7.0044363686        1.5422793725       25.6582300510
  C         6.5661112459        2.2984733745       27.1230997624
  H         6.3104540013        4.3226667474       27.8557438659
  C         8.0663550531        2.9040120111       22.6463610025
  H         8.5629998139        6.4865367074       22.7177055580
  C         8.8176389495        4.7987283826       21.6762468005
  H         5.0257860958        5.7750880082       26.7182119109
  H         5.3564519452        7.5000334155       26.4334329566
  C         3.6919898215        6.7418811114       25.2652913296
  C         6.0981794048        1.5323472783       28.3261707978
  C         8.5925478631        3.4950078141       21.5344488113
  H         7.7461400832        1.9420980355       22.5015590378
  C         9.2315600593        5.1697403363       20.4281711633
  H         3.4213173627        5.9471649847       24.6595217489
  H         3.7916771304        7.6107335613       24.5220444029
  C         2.6051077361        7.0277766133       26.2619238560
  C         6.1840833371        0.1764357695       28.5191703354
  C         5.6260857868        2.3582655036       29.5410974672
  C         8.8330102167        2.8082896276       20.2476687431
  C         9.3456285797        4.0890622521       19.5689166866
  S         9.6495200779        6.7118682522       19.6839711180
  H         1.6977010236        7.2577817764       25.7269401941
  H         2.7565858781        7.7903282009       26.8954358228
  C         2.2536608403        5.8238841886       27.0534104295
  N         6.5362475453       -0.7621107597       27.5624273051
  C         5.8577559329       -0.4214380838       29.7456900878
  C         5.3591099953        1.7833196958       30.7783887063
  H         5.4545561334        3.4378629065       29.4276561811
  C         7.6908452417        2.0645613662       19.5246728467
  C        10.1341177412        1.9565479982       20.3249459112
  C         9.7655275383        4.4744676311       18.3249995595
  C         9.8383683748        5.8460968121       18.1879858369
  H         2.3259180875        4.9209657107       26.3788423899
  H         3.0102205063        5.6762531514       27.8711357351
  C         0.8300160959        5.9047487943       27.6914193574
  S         6.6436203426       -2.1938155516       28.3122162076
  N         6.0237282877       -1.7819665949       29.8116504292
  C         5.4736746256        0.2963010460       30.9374088916
  H         4.8835153360        2.3810083856       31.5722464744
  H         7.3438885992        1.1114490566       20.0282286796
  H         8.1241908565        1.6504180210       18.6231242696
  C         6.4637936871        2.9113722151       19.3777125831
  H        10.1777121927        1.3631339604       19.3814987177
  H         9.9244735200        1.1566258501       21.0123825347
  C        11.3811897269        2.7010298736       20.6479011891
  H         9.8618266132        3.6791727916       17.5746091848
  C        10.0940418601        6.4325026235       16.8834240722
  H         0.2303472026        5.4212692770       26.8932222407
  H         0.4963549404        6.8794117329       27.8816290198
  C         0.6467747673        5.0542900706       28.9016513620
  C         5.1732445853       -0.4026250426       32.1484975544
  H         6.7044152203        3.5953922746       18.5778685091
  H         6.3417209448        3.4806777327       20.3387961230
  C         5.1394113628        2.0751945454       19.1024780954
  H        11.2027342851        3.4739250741       21.3858016738
  H        11.7569161055        3.2676612675       19.8400573841
  C        12.4993293863        1.7975239806       21.3366973102
  C        10.2827561545        7.8170453241       16.6957386601
  C         9.9862326747        5.6091994789       15.6774294812
  H        -0.3630024543        4.5770043738       28.9452351386
  H         1.3116100452        4.2584030021       28.9410571792
  C         0.9837338470        5.8731716791       30.1282482186
  H         5.2228243487       -1.5259761644       32.1877432534
  C         4.7769412368        0.0381367104       33.4757725566
  H         4.2069449653        2.6354956440       19.3109347755
  H         5.2137881995        1.2726544742       19.8180832706
  C         5.1268260659        1.5087012055       17.6391138215
  H        12.1704009151        1.1662209613       22.1840685218
  H        12.7091643836        1.0806098862       20.5686585757
  C        13.7112098169        2.5812355577       21.7183916154
  N        10.3503810558        8.8418605976       17.6871316549
  C        10.5781164358        8.3445810570       15.4840365558
  C        10.3939371765        6.1577287530       14.4374308966
  H         9.6618232624        4.5523916509       15.6931082121
  H         0.2356250929        6.6906292950       30.3378190911
  H         1.0088492869        5.0509381628       30.8318409571
  H         1.9492831317        6.3384159446       30.3034195592
  S         4.5807963337        1.6519575515       33.9704463198
  C         4.5749734833       -1.0471645966       34.5172200366
  H         5.5385097658        2.0927692597       16.8951312028
  H         5.7550767666        0.5889037829       17.7574980248
  C         3.8413177183        0.8517833631       17.2971802002
  H        13.3982041180        3.3587214001       22.4948744314
  H        14.0960405665        3.1059984087       20.8310418285
  C        14.8087217833        1.7509750381       22.3754865038
  S        10.3860760338       10.2793802123       16.9841904112
  N        10.7395877126        9.7289165643       15.4859461425
  C        10.7456289941        7.5642454939       14.3277935656
  H        10.5061509982        5.4952090672       13.6535588385
  C         4.3450826656        0.9391889693       35.6044356580
  N         4.3715242292       -0.4399282342       35.6882275432
  O         4.8030097176       -2.2699818183       34.2942375095
  H         3.6722772420        0.8507973521       16.1496294545
  H         2.9625938492        1.4245494083       17.6482668378
  C         3.6984398960       -0.4764975304       17.8678397182
  H        14.4428679825        1.0568411244       23.0905419944
  H        15.2775968633        1.2693106277       21.5389246419
  C        15.8554710273        2.6625834848       23.0401727214
  C        11.1782662275        8.2736715767       13.1262391195
  S         4.1708036216        1.8613291941       37.0650729782
  C         4.4876123686       -1.1078979432       36.9674727245
  H         4.4219326138       -1.2056012287       17.3973451594
  H         4.0561144786       -0.4269709564       18.9190970687
  C         2.3307026205       -1.0444011902       17.8710505102
  H        15.3805678889        2.8579020047       24.0196450599
  H        15.7902750470        3.6313745297       22.4798447644
  C        17.2340509438        1.9848192122       23.2244714532
  H        10.8916680282        9.2967448486       13.0801334849
  C        11.7278931578        7.8756895376       11.9467468399
  H         3.7532084147       -0.7603034198       37.6707041248
  H         4.1950583819       -2.2125399460       36.9000313958
  C         5.9318464998       -1.0970007037       37.4282779921
  H         1.6143745893       -0.3899036507       18.3641406331
  H         2.2012938579       -1.9748129924       18.3545643782
  C         1.8379835907       -1.2680542200       16.4148499934
  H        17.7368048417        2.5912466261       24.0124110093
  H        17.1771726044        1.0154043663       23.7040184443
  C        17.9435623108        2.0809084016       21.8747726186
  S        12.3487856297        6.2483874897       11.5378250144
  C        11.7623944458        8.8851535437       10.8485163587
  H         6.7001236150       -1.2468561242       36.6466795221
  H         6.1948376341       -0.2159708217       37.9395143883
  H         6.0231081286       -1.8624725967       38.1947654931
  H         2.0523893485       -0.4608134045       15.6742601701
  H         0.7578113827       -1.4537228307       16.3523306743
  H         2.3171558426       -2.1785585065       16.0370590190
  H        18.2567044624        3.1789092376       21.7623853607
  H        17.2408056869        1.8957298488       21.0174854456
  H        18.7297070039        1.3275371890       21.7920647527
  C        12.7145288319        7.0475510286        9.9642067153
  N        12.4397332621        8.3488321054        9.7947464682
  O        11.2706895851       10.0670128554       10.9436217170
  S        13.5464613595        6.1105606396        8.6627711854
  C        12.5442586851        9.0419296818        8.4870391648
  H        12.7692434535       10.0869138483        8.6580955332
  H        13.4132713745        8.6251203900        7.9336172716
  C        11.2743323526        8.8430931197        7.6735706912
  H        10.4898003364        8.4597639542        8.3132914826
  H        10.9681352553        9.7840230831        7.2169691745
  H        11.3831661004        8.0443337163        6.9452528269
  H        -3.0314453612       15.2237124023       15.6586037823
  C        -3.1551649726       14.2381247393       16.1441949771
  H        -4.2326106540       14.0355943464       16.4146616135
  C        -2.1559704420       14.1166015562       17.2878143658
  C        -2.6261680899       13.3798550249       15.0304185956
  C        -2.7742079126       14.2059050643       18.6814174131
  H        -1.6242944883       13.1984674861       17.1937709658
  H        -1.4117574361       14.8856499353       17.0823957003
  H        -2.8932792475       12.3472360180       15.0861835807
  H        -3.0581204647       13.6866143152       14.1010136807
  H        -1.5489708854       13.4778846768       14.9069544470
  C        -1.6306148216       14.0410134383       19.7013482070
  H        -3.5538941439       13.4446862038       18.8315933576
  H        -3.2187366759       15.1777641078       18.8156358710
  C        -2.0050052456       13.8646049872       21.2064932933
  H        -0.9976879976       13.1820604157       19.3236655089
  H        -0.9146640896       14.8993918830       19.5331313507
  C        -0.9284286777       13.1498380688       22.0842887759
  H        -2.9223974815       13.2373360720       21.3527399407
  H        -2.3573739781       14.8494904900       21.5605522656
  C         0.2586084125       14.0797686096       22.4791052156
  H        -1.3541806839       12.6186566495       22.9010932959
  H        -0.5615139080       12.3802313835       21.3701474750
  C         1.4009011780       13.2970892842       23.2179355619
  H         0.6920677272       14.4015810608       21.5011658775
  H        -0.1069857226       14.9899133772       22.9281888513
  C         1.7673050892       11.9997410598       22.5612336698
  C         0.9276082335       12.5888200915       24.4075851975
  C         2.5879328710       14.2747394836       23.2957019166
  C         1.5235563259       10.8211997489       23.3000744835
  C         2.2790292771       11.5916045210       21.3161621509
  C         1.0173501815       11.2585442214       24.5478916394
  C         0.3727942734       13.2719275432       25.4852435936
  H         2.6548968195       14.9300325651       22.4598875558
  H         2.3712269650       14.9368760672       24.1694815863
  C         3.9890387748       13.7621751143       23.7216841249
  S         1.8548732176        9.3106428825       22.4879057008
  C         2.4888144407       10.2392740833       21.1485996752
  H         2.4897253863       12.3315591151       20.5418550679
  C         0.6068729243       10.6191349705       25.6571129599
  H         0.3453601429       14.3869035389       25.4156364810
  C         0.0513781897       12.6392106963       26.6825837832
  H         4.1769974275       12.9519078321       23.0254418538
  H         3.8052996761       13.3377859603       24.7396499145
  C         5.1115051508       14.7275394108       23.7187023916
  C         2.8937494049        9.5802730056       19.8264930169
  C         0.1446689335       11.2651013297       26.7956674667
  H         0.6341451530        9.5705447034       25.7371996029
  C        -0.3058004060       12.9355461432       27.9704858030
  H         5.7867389015       14.6249758133       24.6030064886
  H         4.6115449070       15.6580277178       23.8037033220
  C         5.9627052185       14.7852966530       22.4467886563
  C         2.8725745944        8.2046595642       19.4905893039
  C         3.2539981756       10.5080567181       18.6343158100
  C        -0.3489412591       10.5299803291       27.9760698000
  C        -0.6754236938       11.7900713099       28.7099238938
  S        -0.6059336869       14.3557620313       28.8650438686
  H         6.5506159222       15.6684406295       22.6509247867
  H         5.4168799619       14.9612550591       21.5286130906
  C         6.7996251402       13.5494667428       22.1806144541
  N         2.4311397943        7.2035524081       20.3828300121
  C         3.1545676309        7.7633690054       18.2331340815
  C         3.5217429843       10.0308228995       17.3582133007
  H         3.2866215560       11.6211835638       18.7441063683
  C         0.7724198241        9.7739797327       28.6538356182
  C        -1.6547659274        9.6777346033       27.7723744564
  C        -1.1824673872       12.1175585567       29.9937195068
  C        -1.0417981544       13.4705097380       30.2715786110
  H         7.4916431301       13.3783406233       22.9664873069
  H         6.1632105315       12.6643297864       22.2014965676
  C         7.7148499464       13.4248476569       20.9022613324
  S         2.5344592789        5.7887378906       19.6254557025
  N         2.9484746820        6.3605666203       18.1819023426
  C         3.5286551070        8.5845483618       17.1070675908
  H         3.8672966572       10.7274677470       16.6314136407
  H         1.1261709576        8.9026550976       28.0594295937
  H         0.4719083564        9.3345097996       29.5836486254
  C         2.0962484489       10.6366254822       29.0032376897
  H        -1.4514176231        8.8226851121       27.1451962920
  H        -1.9133651219        9.3972374166       28.8266089822
  C        -2.8750115373       10.5511375897       27.2219586217
  H        -1.4936428289       11.3240474625       30.6817615972
  C        -1.4323462062       14.1145681520       31.6004681542
  H         8.2768659413       12.4495491005       20.8084850513
  H         8.5623346429       14.1612440261       21.0426225233
  C         7.0565203807       13.5971984529       19.5185650684
  C         3.6077555029        7.9206956041       15.8926762455
  H         2.5966138357       10.8614053793       28.0551863444
  H         1.8372904053       11.5706104191       29.4307939338
  C         3.0580193115        9.8318185450       29.9360825922
  H        -2.5866930319       11.0739693724       26.2867928249
  H        -3.1691204370       11.2758102407       27.9296513889
  C        -4.0554480480        9.6842994832       26.8446469432
  C        -1.5696448711       15.4612192990       31.8447056368
  C        -1.6801058548       13.2538135872       32.7820708713
  H         6.3952192528       12.7571081575       19.3772693578
  H         6.2764943135       14.4472334077       19.5610560838
  C         7.9708524430       13.8776750698       18.3256806637
  H         3.6798985106        6.8432332767       15.9181613572
  C         3.8939748596        8.2951134711       14.6013831580
  H         2.9370702628        8.7981727836       29.8210215601
  H         2.7282378812        9.9690364857       31.0130678797
  C         4.4843004343       10.3506669592       29.8694340238
  H        -3.6744241095        8.8905902080       26.1747339684
  H        -4.5428774288        9.2535433406       27.6876727462
  C        -5.0421903318       10.6790997267       26.2488540554
  N        -1.2809946481       16.4805880061       30.9047817133
  C        -1.9592795352       15.9938708838       33.0488310837
  C        -2.0882462695       13.7704118741       34.0329171353
  H        -1.6397385183       12.2034752687       32.7005994680
  H         8.4955697969       12.9929982562       18.0878516044
  H         7.3773723182       14.0834384496       17.4586931190
  H         8.7209230014       14.6643812110       18.4902228878
  S         4.1977066546        9.9086946529       14.0288969408
  C         3.9534636192        7.2280007185       13.5471546447
  H         4.9861474891       10.3474924685       28.8729216902
  H         4.5599783956       11.3445592291       30.3002394615
  C         5.4321552292        9.4157671612       30.6701898398
  H        -4.5582750213       11.3281901577       25.5124564045
  H        -5.5065738946       11.2864423718       27.0466594601
  C        -6.1817769241        9.9791823480       25.5336326530
  S        -1.4031729748       17.9090441219       31.5532822560
  N        -1.9745317565       17.4259765808       32.9904175065
  C        -2.2840006387       15.2354376700       34.1717966863
  H        -2.4385361349       13.1550962768       34.8743297224
  C         4.5438548805        9.1603563357       12.4421626226
  N         4.4051798810        7.7794924490       12.4642356373
  O         3.7500598352        6.0257405864       13.7899824537
  H         4.9519646463        9.1008293927       31.5688711416
  H         6.3545117391        9.8710589760       31.0163839511
  C         5.7985499340        8.2189697519       29.7923925664
  H        -5.8393517968        9.2877009147       24.7244120305
  H        -6.6545130999        9.3157680764       26.2965581534
  C        -7.1917016816       10.9635546010       25.0286963641
  C        -2.7238593745       15.9141285983       35.3345634563
  S         4.9454840739        9.9320346192       10.9206390161
  C         4.4576202673        6.9982224761       11.2653037570
  H         5.1380452427        8.2408700156       28.9333001560
  H         6.8396450702        8.3439587311       29.4303855480
  C         5.6302685949        6.8512600843       30.4962258844
  H        -6.7874027705       11.5405687655       24.2261646134
  H        -7.2174990067       11.5126073937       26.0290008882
  C        -8.6191256700       10.3412460523       24.7376183690
  H        -2.4738562303       16.9065626349       35.3081595490
  C        -3.3685972517       15.4526525735       36.4561511199
  H         5.2367351782        7.3013055248       10.6024253460
  H         4.6527174331        5.9732924885       11.4890583287
  C         3.1432700917        7.0970635385       10.5490454116
  H         5.6816690265        6.1425084606       29.6685081290
  H         4.6110525024        6.7842790486       30.9598878619
  C         6.7784760372        6.7384687008       31.4531442174
  H        -8.9919872067       10.8434160957       23.8542583589
  H        -8.4986345659        9.2993741892       24.5835131104
  C        -9.5934590336       10.4755124964       25.9245928510
  S        -4.1635608366       13.9717241780       36.6436183211
  C        -3.3762558233       16.3575975592       37.5941972841
  H         3.3119823200        7.6690059658        9.6157668295
  H         2.7368343141        6.1138283923       10.4423369163
  H         2.4380346974        7.6430162938       11.1339679657
  H         6.6195760101        7.1939099955       32.4148786450
  H         7.7857580491        7.0437209310       31.0536172128
  H         6.8504548791        5.6769199361       31.6115806826
  H       -10.1359987792       11.3599633770       25.9900458972
  H        -9.0759470382       10.2533233562       26.8123364579
  H       -10.5347083079        9.9071876748       25.7963874502
  C        -4.6096878410       14.5769393808       38.2458881632
  N        -4.1284067706       15.8479087128       38.5925067435
  O        -2.7523200471       17.4177892988       37.5763217965
  S        -5.4742526056       13.7277895860       39.4508182498
  C        -4.2575421908       16.4864580042       39.9137011583
  H        -4.2806943288       17.5792096955       39.8076990165
  H        -5.1682566370       16.2279971660       40.3615938673
  C        -3.0936371996       16.0108110189       40.8733453777
  H        -2.1121232373       16.5422174594       40.7263840225
  H        -3.2925910685       16.0682180219       42.0050144816
  H        -2.7602391224       14.9588352441       40.7959757674
