352
 i =    85500, time =    85500.000, E =        24.8749443612
  H        10.5129603137        7.2992672121       31.7282965472
  C        11.5534647744        7.0613688317       31.8051414818
  H        11.9888027494        8.0613953725       31.9128894185
  C        12.0476776605        6.3662655849       30.6094334139
  C        11.8151781270        6.3294251837       33.1504521546
  C        10.9963411209        5.2570659623       30.3139018497
  H        12.1754575553        7.0492631509       29.7427305639
  H        12.9430206200        5.7777176122       30.7583876556
  H        12.1483636289        7.0045495223       33.9592904313
  H        10.9196489772        5.9229693028       33.5699788210
  H        12.4816693935        5.4476146578       33.1071729506
  C        10.2046248827        5.6297035678       29.0878956286
  H        10.3199343066        5.2531523505       31.1409130560
  H        11.3845884754        4.2801379106       30.1992639571
  C        10.9228232528        5.4595464321       27.7543823825
  H         9.2316644390        5.0352642018       29.1698376081
  H         9.7829468104        6.5656076803       29.0795302455
  C         9.9604567625        5.0820712376       26.6714644603
  H        11.8073105295        4.7735545689       27.8327241542
  H        11.3726491043        6.3280453962       27.3687811963
  C         8.7834336296        6.0017129295       26.3907545316
  H        10.4948653004        5.1721227721       25.7004695978
  H         9.6864673253        4.0800620754       26.7432407861
  C         7.6732902119        5.3333536319       25.5375262420
  H         8.3543948657        6.3595843488       27.3299198113
  H         9.1653758887        6.8920558332       25.8597543642
  C         7.1656130025        4.1106898563       26.2743149345
  C         8.0218320158        4.5604277918       24.2912791907
  C         6.5275449366        6.2492764114       25.0957880066
  C         7.3461750587        2.9919179406       25.4458978005
  C         6.5880944928        3.7579507658       27.5029370217
  C         7.8578075614        3.2754261739       24.2066003457
  C         8.5999716499        5.1027510757       23.1643493424
  H         5.8518954739        5.7845854848       24.2942482523
  H         6.8727279957        7.2178413544       24.6503964426
  C         5.5460965159        6.7519314685       26.2350057990
  S         6.7696275371        1.5368764015       26.1924241619
  C         6.4049466078        2.3906689058       27.6056008083
  H         6.4632820924        4.5821271653       28.2010155946
  C         8.2783213620        2.4969601377       23.1605982100
  H         8.6640547820        6.1941842529       23.2739637545
  C         8.9257732427        4.4853076601       22.0843707497
  H         5.8290069480        6.3100400514       27.2439943368
  H         5.6746529067        7.8624351892       26.2593212886
  C         4.0358503816        6.5465415611       25.9397461674
  C         6.0044119208        1.6994545732       28.8788664383
  C         8.8440766266        3.1117458800       22.0509649560
  H         8.1912803672        1.4212984718       23.1803648237
  C         9.2358819081        4.7651231057       20.8144194077
  H         3.9360849397        5.5517246737       25.5815792078
  H         3.7157703869        7.1848889806       25.1178934077
  C         3.1296498906        6.8006124806       27.1455241017
  C         6.1267339071        0.3182955562       29.1773140087
  C         5.5982207469        2.5568383248       30.0643561947
  C         9.1524120960        2.3372203017       20.7734956845
  C         9.3468281957        3.6474064935       19.9990798791
  S         9.5798707588        6.2503186688       20.0247851244
  H         2.5335464059        7.6756226206       27.1533745881
  H         3.8885831228        7.0664227219       27.8336332281
  C         2.4131830351        5.4883076269       27.5450337832
  N         6.6240164423       -0.6964129409       28.3228108343
  C         5.9210009150       -0.2089476393       30.4069622162
  C         5.3260512595        1.9456083665       31.2804238482
  H         5.6041303379        3.6332335691       30.0063058063
  C         7.9951777658        1.4386855467       20.3432965522
  C        10.4344182340        1.5361779598       20.9803980131
  C         9.6031157142        4.0064758098       18.6861339337
  C         9.8474292476        5.3581525410       18.5174454394
  H         2.0281101026        4.8960086276       26.7652182459
  H         2.9795774968        4.7855648085       28.1404367707
  C         1.2818165441        5.8923964098       28.4728022248
  S         6.5149729926       -2.1563846954       29.0367497808
  N         5.9395996422       -1.6269628015       30.4526942402
  C         5.4394080489        0.4457197220       31.5309247374
  H         5.2020622922        2.6934524214       32.0524566661
  H         7.7245044073        0.6608505261       21.0940530305
  H         8.3057925506        0.8886016164       19.4826736507
  C         6.8182545014        2.2885307433       19.9080229250
  H        10.6253591937        0.9846319830       19.9886519374
  H        10.2399798511        0.8390973608       21.7752331781
  C        11.6399970953        2.4356494125       21.3481941052
  H         9.6908894794        3.2012333458       17.9655442102
  C        10.0415173977        6.1018262013       17.2105630394
  H         0.6659210235        5.0612943694       28.7185326756
  H         0.6357499179        6.6623430182       27.9320049112
  C         1.7709872749        6.4400392744       29.8529433511
  C         5.2291655382       -0.1868099330       32.7846635263
  H         7.0995490727        3.0890354625       19.1981129998
  H         6.4329266058        2.7726466119       20.7942974559
  C         5.7312882696        1.3744668206       19.2693576075
  H        11.4468136995        3.1312267871       22.2453925463
  H        11.9927867890        3.1725942829       20.6367926890
  C        12.8540956156        1.5519367869       21.7391407872
  C        10.2278345994        7.5059961010       17.0412797632
  C        10.3088191695        5.3134127830       15.9509797881
  H         2.4952175666        7.1309470033       29.8339596318
  H         0.9242877735        6.8805189351       30.3693891390
  C         2.4888623906        5.4020125610       30.7387782997
  H         5.4304925652       -1.2062815726       32.8331139545
  C         5.0382397337        0.3443644149       34.0392387276
  H         5.2541734871        0.8651218295       20.1641568197
  H         6.1651808850        0.6552630936       18.5453502601
  C         4.6489429210        2.0951428606       18.4834106858
  H        12.5331661429        0.7993808715       22.3470545533
  H        13.3036622666        1.1650694908       20.8029006052
  C        13.9384607938        2.4037499258       22.4751401909
  N        10.0246534178        8.4607011139       18.0076979961
  C        10.5222700952        8.1298334932       15.8542398871
  C        10.5581471393        5.9432625247       14.6993655295
  H        10.3129007674        4.2193969437       16.0310410639
  H         3.0762148919        5.9033709333       31.4521778363
  H         1.7728592796        4.8376706808       31.2425595431
  H         2.9257706359        4.5244687419       30.1926229966
  S         4.5829872444        1.8840629066       34.4932632337
  C         5.0931661202       -0.5755100895       35.2478635806
  H         4.6070648095        3.1259235104       18.7477885931
  H         4.9354689624        2.2281178424       17.4167034949
  C         3.2993982575        1.3648571931       18.4706842330
  H        13.4348000652        3.1036262029       23.1986086678
  H        14.3468597219        2.9667703617       21.6831415009
  C        15.0585216527        1.6517076336       23.2204610404
  S        10.5584453725        9.9040075336       17.5107756416
  N        10.9317565450        9.4488977740       15.9879873901
  C        10.7783542531        7.4206411387       14.6566704953
  H        10.7374588009        5.2878070873       13.8662473096
  C         4.6246120867        1.4350910554       36.1512578564
  N         4.7743514419        0.0947682729       36.3514296222
  O         5.1746331154       -1.8155557329       35.1962625582
  H         2.6885326430        1.7092803498       17.6719102431
  H         2.7309059249        1.5344289366       19.3683032950
  C         3.3783421157       -0.1797996240       18.4060217015
  H        14.6269271293        1.3090295223       24.1461129784
  H        15.3458619801        0.8472040774       22.5689235002
  C        16.2319973847        2.5624663402       23.5756933681
  C        11.1773069724        8.1784802081       13.5502752211
  S         4.2605198311        2.5906554415       37.4375058282
  C         4.6164715444       -0.6449003377       37.6143430019
  H         4.1632049493       -0.4735727039       17.7345455234
  H         3.6390593105       -0.6666543797       19.2900322776
  C         2.0339689790       -0.9344827282       18.0750651695
  H        16.1952868985        3.0813851878       24.5196217206
  H        16.3317527004        3.3804781421       22.8036462280
  C        17.5004904466        1.8457814161       23.5631754671
  H        10.8111502113        9.1778021350       13.6023795864
  C        11.8913230010        7.9288391981       12.3726230561
  H         3.8158418510       -0.1051716930       38.0933894691
  H         4.3672774806       -1.6341427504       37.4301167539
  C         6.0205742868       -0.6591513796       38.3857150168
  H         1.2805339819       -0.2821324607       17.7919304416
  H         1.6728203519       -1.5647151382       18.8875808535
  C         2.1867336268       -1.8124703580       16.8614792927
  H        18.1906346040        2.2318172815       24.3657210444
  H        17.3577164588        0.8212699155       23.7649865911
  C        18.2633525477        2.1143229680       22.2558705995
  S        12.7800480385        6.5050668903       12.0081934971
  C        11.9836549264        9.0004643961       11.3856889237
  H         6.3598140302       -1.6921306985       38.6239861915
  H         6.8751606969       -0.3617579477       37.6854701802
  H         6.1050048482       -0.0375395185       39.2680905281
  H         1.6991028889       -2.7576822906       16.8589393589
  H         3.1970670126       -1.9632088991       16.5376305746
  H         1.6987179295       -1.3052461277       16.0455916251
  H        19.1428857483        1.5240099926       22.2532666595
  H        18.5664187894        3.1955412150       22.2682758164
  H        17.6196017674        1.9406254681       21.3790000527
  C        13.0085807833        7.2064351990       10.3638574835
  N        12.6822206268        8.5267604186       10.2853767420
  O        11.6604474348       10.1800139441       11.4862773366
  S        13.9011768665        6.6181429580        8.9202260260
  C        12.6948857073        9.2964966406        9.1204556373
  H        12.6580699240       10.3687164755        9.3887614992
  H        13.6444633320        9.2763375701        8.6044451240
  C        11.5058689957        8.8860198520        8.2424212750
  H        10.5319480500        8.9202519988        8.7818461193
  H        11.4806717301        9.5830279046        7.3908410657
  H        11.7152216688        7.9590320672        7.6946620382
  H        -3.1573014155       15.4910176203       16.5590723398
  C        -2.9664328101       14.4241465398       16.6268826256
  H        -3.9036142625       13.9574606624       16.8774367795
  C        -2.0118067027       13.8759259053       17.6622647099
  C        -2.6522674260       13.9798389997       15.1978151446
  C        -2.5237932963       14.1160971269       19.0523917330
  H        -1.7208379432       12.8811904514       17.5721207761
  H        -1.0246945706       14.4320485827       17.5439666541
  H        -1.7010949242       13.4655514226       15.0606306227
  H        -3.4038676052       13.2686227961       14.9634688357
  H        -2.7461651387       14.7840726765       14.4456923274
  C        -1.5102379869       13.4540928361       19.9836092058
  H        -3.4856659078       13.6203961708       19.1117062067
  H        -2.7601473005       15.1472477501       19.3099236026
  C        -1.7759679069       13.9378563407       21.4011234019
  H        -1.5323422247       12.3784488634       19.8815763013
  H        -0.4362483944       13.7550405929       19.7613472848
  C        -0.8732837476       13.2264899504       22.3961979481
  H        -2.8715529453       13.7691461571       21.6018667242
  H        -1.6789957174       14.9918696969       21.4206637094
  C         0.2538479376       14.0711546944       22.7814276688
  H        -1.4603791589       12.7900834868       23.1547101282
  H        -0.4962819305       12.3494001205       21.9074952917
  C         1.4113682485       13.3512048213       23.5073103416
  H         0.7059966620       14.2144701439       21.7931985753
  H         0.1425478763       15.0562366787       23.1068538861
  C         1.8381640236       12.0072271982       22.8427170619
  C         1.0206834844       12.5863322266       24.7356526281
  C         2.6435230937       14.3016544326       23.7086616246
  C         1.5042017724       10.8718389576       23.5661239979
  C         2.3499174767       11.6847278947       21.5251179175
  C         1.0672827248       11.2450481427       24.8426223579
  C         0.5535854782       13.2811216690       25.7874460602
  H         2.8151691820       14.7682077873       22.7088685219
  H         2.4125624435       15.0798542078       24.5539032141
  C         3.9115991769       13.5972930495       24.2995088567
  S         1.9313049882        9.4299207958       22.7626340016
  C         2.4609578551       10.3402512339       21.3564298708
  H         2.6518447109       12.4983883181       20.9329163364
  C         0.6884423329       10.6491799454       25.9573700497
  H         0.4657539872       14.3876372313       25.6229949613
  C         0.1796762909       12.7366725620       26.9689441727
  H         4.1650922560       12.7341660121       23.6442902237
  H         3.6817482205       13.2624046890       25.2558375410
  C         5.1770289224       14.4914028889       24.0789651229
  C         2.9425001122        9.7421524187       20.0847395028
  C         0.2385494750       11.3552762119       27.0941600875
  H         0.5871359220        9.5429240081       25.9582924556
  C        -0.2706865215       13.1134576645       28.1939761890
  H         5.9042491677       14.2039550813       24.7798738945
  H         4.8652965900       15.5139682722       24.3887204157
  C         5.7290412901       14.5793529236       22.6125848073
  C         2.8421833092        8.3741303655       19.7545646603
  C         3.5140766548       10.5950518712       19.0072818078
  C        -0.0585680791       10.6351758227       28.3947135179
  C        -0.4359377727       12.0194260240       29.0526374244
  S        -0.5998142519       14.5935187394       29.0335880880
  H         6.5947291803       15.2455020313       22.5306414704
  H         4.9396637232       14.8947072028       22.0228439081
  C         6.2583836289       13.2554035552       22.0893499850
  N         2.5030107336        7.3373139909       20.6730953769
  C         3.1752374998        7.8531813302       18.5141915778
  C         3.7513345827       10.0336279086       17.7366416447
  H         3.8714867011       11.5884304587       19.3098669870
  C         1.1059409516        9.9389699291       29.2216938726
  C        -1.3924187468        9.8556223959       28.3205497593
  C        -0.8524015191       12.3569441751       30.2887710031
  C        -0.8972050863       13.6742434958       30.4622493257
  H         6.8549790423       12.6597891398       22.8210932395
  H         5.4238791742       12.6846560750       21.8059929804
  C         7.2904081872       13.3085301332       20.8640253114
  S         2.6072870691        5.8650660002       19.9193589128
  N         3.1175831668        6.4284666309       18.4735063730
  C         3.5264242573        8.6038737236       17.3929412674
  H         4.2655785761       10.6514282618       16.9313137325
  H         1.4472670457        9.0788616488       28.5893374281
  H         0.7268829638        9.5795118397       30.1813236214
  C         2.4274156086       10.7818134210       29.4136723482
  H        -1.1898532324        8.8759959098       27.9133571552
  H        -1.7610386656        9.6720511222       29.2971740658
  C        -2.6454325360       10.5578881895       27.7468108706
  H        -0.9798067908       11.6343217453       31.0027747140
  C        -1.1828433963       14.4499668998       31.7372968541
  H         8.0057181224       12.4697936809       20.8629726415
  H         7.8971591190       14.1710065198       20.9814440004
  C         6.6255924801       13.4795071590       19.5415674963
  C         3.8419296032        7.9373443978       16.1588670243
  H         2.8375791949       11.0350587745       28.4712891845
  H         2.0456354230       11.7037976297       29.8669398261
  C         3.4533943569       10.0590571262       30.3591508791
  H        -2.4339583072       10.8297766215       26.7013780986
  H        -2.9202231046       11.3448083747       28.4316926084
  C        -3.9827286655        9.7080357804       27.7328752549
  C        -1.2951352229       15.8273709138       31.8771920450
  C        -1.3858825102       13.6393013752       33.0106051401
  H         5.9985605238       12.5801901476       19.4537928845
  H         6.0173136011       14.3913923824       19.6058206378
  C         7.5948510494       13.5006319998       18.4150896682
  H         3.7765683215        6.8850384351       16.2334057562
  C         4.0679726000        8.3602541417       14.8349137257
  H         3.4436560370        8.9391648562       30.1803536697
  H         3.0716680436       10.2927574835       31.3339379878
  C         4.8126184332       10.7145454899       30.1678501070
  H        -3.6520586247        8.9032697289       27.0417036170
  H        -4.1714614530        9.3664306058       28.7259586567
  C        -5.2165857470       10.5036556108       27.1828588750
  N        -1.2301598512       16.8388503221       30.9141923322
  C        -1.7079725429       16.3757797755       33.1119415261
  C        -1.7959779626       14.2213660441       34.1889538538
  H        -1.2947691159       12.5643844617       33.0419782112
  H         8.1610998449       14.4363667061       18.4052801638
  H         8.2938141901       12.5912916801       18.3418389620
  H         7.1355675761       13.6156229675       17.5107197710
  S         4.3981854280        9.9667645415       14.3557737528
  C         4.0371097214        7.3416724430       13.7920199419
  H         5.0081462470       10.7090998257       29.1086843753
  H         4.7657233319       11.7231847769       30.4200796448
  C         5.9485148132       10.1281194443       30.9541706601
  H        -4.8548534884       11.5083754895       26.9014486684
  H        -5.8701412599       10.6787500006       28.0113605304
  C        -5.7546545584        9.9922068822       25.9294565680
  S        -1.4280416028       18.2771393252       31.6202928005
  N        -1.7730869257       17.7548072947       33.1073813853
  C        -2.0130696720       15.6394077428       34.2639358506
  H        -1.8921975781       13.5628684850       35.0096945566
  C         4.5284510990        9.2640705004       12.7193859884
  N         4.4814280713        7.8906460670       12.6572836068
  O         3.6459823178        6.1842944043       13.9983232732
  H         5.5755142031       10.0498627832       32.0182316664
  H         6.6850320079       10.8317170716       31.0550634056
  C         6.3729750458        8.8349354039       30.2751236845
  H        -5.0541048926        9.6153444223       25.2524311787
  H        -6.4355236654        9.1978761973       26.1831834122
  C        -6.5297285086       11.0494951048       25.1442983953
  C        -2.3735046644       16.4007769844       35.4250457725
  S         5.0655605206       10.0747295586       11.2503483989
  C         4.5603489052        7.1695110001       11.3756406937
  H         5.9409109471        8.6886009041       29.3069966510
  H         7.4312669014        8.7702411228       30.0971592027
  C         5.9308450935        7.6423770661       31.0785048280
  H        -6.5111369968       10.8738605929       24.0845478960
  H        -6.0208039961       11.9329725523       24.9950064579
  C        -7.8904308454       11.3164191172       25.7032325597
  H        -1.9717612742       17.3728916821       35.5468177804
  C        -2.9651269890       16.0012699450       36.5565858428
  H         5.1937346453        7.6605730138       10.5913431205
  H         4.9977539169        6.1787183890       11.5700536495
  C         3.2245124744        7.0163791182       10.6747764235
  H         5.9222122043        6.8155056711       30.3664159127
  H         4.9303388698        7.7934724950       31.5027278885
  C         6.9550129463        7.3473541396       32.1863635780
  H        -7.9082817097       11.5134188466       26.7860386446
  H        -8.1849172479       12.2704036716       25.3088817196
  C        -8.8045627042       10.1487067331       25.2459948410
  S        -3.5124709498       14.4537543145       36.9277987515
  C        -3.1897061954       17.0367039710       37.6101199254
  H         2.8750356207        7.9186211203       10.1454078877
  H         3.4040462344        6.2282974607        9.9584353266
  H         2.4482031409        6.7692865136       11.4109989591
  H         7.1023595079        8.1214915658       32.8671274737
  H         7.9109473526        7.2415574899       31.7827289829
  H         6.7369888904        6.5250947617       32.8373769506
  H        -9.6843401997       10.6992484469       24.8364244246
  H        -9.3389587569        9.4500389339       25.9769310855
  H        -8.4098672233        9.5361397487       24.5004662008
  C        -3.9391633256       15.0896025200       38.5180031297
  N        -3.8189935174       16.4245184937       38.6411823331
  O        -2.9742722001       18.3093349744       37.4399158350
  S        -4.4606859131       14.2656723868       39.9774204106
  C        -4.0807524916       17.1624246228       39.8414541840
  H        -4.6023164728       18.1020398591       39.5511113868
  H        -4.8460153214       16.7279100746       40.5084190990
  C        -2.7745708347       17.4755127075       40.6790187163
  H        -2.6981076108       18.3410202147       41.2918545679
  H        -2.7306952498       16.6181611385       41.4094094378
  H        -1.8937410804       17.4450570643       40.0318339707
