352
 i =    83900, time =    83900.000, E =        24.8749825499
  H        10.3741586846        7.2794039731       31.6974533345
  C        11.2105529230        6.8777500832       32.2245273304
  H        11.7722972362        7.7642914773       32.5657170061
  C        12.0651885878        6.2985798818       31.1117674315
  C        10.7884240879        5.9778088847       33.3417151341
  C        11.4179364383        5.5537683126       29.9609936174
  H        12.5642684210        7.1246206050       30.5895684601
  H        12.7931505917        5.6302190752       31.5733032633
  H        11.6034146023        5.6896432945       33.9910948599
  H        10.0580643843        6.5297859175       34.0168669572
  H        10.2331026373        5.2410138572       32.7644549435
  C        10.6346980918        6.4125508509       28.9661619748
  H        10.9084945028        4.6552254734       30.2423835854
  H        12.2628308974        5.1851804696       29.3233585984
  C        10.8277858817        6.0040995335       27.4933432136
  H         9.6037090933        6.2548211589       29.1477992357
  H        10.9855544289        7.4910951948       28.9783807868
  C         9.6967628481        5.2663734202       26.7805320323
  H        11.7406885356        5.3785233100       27.3901743950
  H        10.9683116095        6.9314234045       26.8386058449
  C         8.5021594113        6.1155180493       26.2772313886
  H        10.1930770789        4.7851524895       25.9603989768
  H         9.2312544864        4.5545462905       27.4927836169
  C         7.5750636235        5.3067639658       25.4254086910
  H         8.0121271502        6.4573564383       27.2134232031
  H         8.9096988918        7.0407582265       25.7440563069
  C         7.1748675114        3.9568969707       26.1438308176
  C         8.1089088939        4.5983561746       24.2578849926
  C         6.2591371243        6.1935828401       25.1564276789
  C         7.5156936194        2.8715809227       25.3560129056
  C         6.6537044581        3.5277526890       27.4222296061
  C         8.0218806550        3.2268436903       24.1198438996
  C         8.5774996347        5.2391861235       23.0913994256
  H         6.0255736393        6.0034568918       24.0979750636
  H         6.4742584221        7.2589927979       25.3364791801
  C         5.1099630715        5.7081022566       25.9960325226
  S         7.2662834026        1.3187371733       26.1255303168
  C         6.6355148032        2.1371366558       27.5245777089
  H         6.4249244771        4.2608696349       28.1366054058
  C         8.4051691029        2.6127372494       22.9497386419
  H         8.6195652667        6.2712266521       23.0923672247
  C         8.8782228598        4.6749178501       21.8828139037
  H         4.8586978927        4.7041542694       25.8759051679
  H         5.2763111966        5.9356393744       27.0887037327
  C         3.7787968116        6.3895164532       25.7973848741
  C         6.1667860227        1.3709996884       28.7504118202
  C         8.7300943723        3.3080684151       21.8007110236
  H         8.2299023635        1.5286764258       22.7294003689
  C         9.1365517162        5.0696442783       20.5775351312
  H         3.4850827939        6.1668239070       24.7878422332
  H         4.0129876573        7.4379693496       25.6927358706
  C         2.6257493734        6.1270521876       26.8051443005
  C         6.3763040861       -0.0171844492       29.0326445688
  C         5.8121371811        2.2242603000       29.9297343585
  C         8.9694641169        2.6055755808       20.5203693448
  C         9.1965507550        3.9587948631       19.7714490298
  S         9.4896932458        6.4934565769       19.7668232498
  H         1.7487317359        6.6444399657       26.6288245917
  H         3.0001748742        6.7972083260       27.6293804391
  C         2.3840448643        4.6664399836       27.1687243332
  N         6.7978904575       -0.9982257370       28.1007165721
  C         6.1013062915       -0.5876187624       30.2520223316
  C         5.5527721666        1.6292991160       31.1365078703
  H         5.6943637730        3.3106107029       29.8628845664
  C         7.7546611742        1.8605810681       19.9733182046
  C        10.2413617726        1.7745205070       20.6312231696
  C         9.4899046819        4.2867394333       18.4530743786
  C         9.7778611542        5.6370031919       18.2868045470
  H         2.2428067610        4.0396456466       26.2809390244
  H         3.2322269939        4.3010704110       27.6564840003
  C         1.1199332781        4.5049438952       28.0147551079
  S         6.8365865590       -2.4327429734       28.8525838717
  N         6.2753516267       -1.9877913995       30.3407156109
  C         5.6280655997        0.1350118700       31.3554407510
  H         5.1383015140        2.3577944073       31.8568705451
  H         7.4098587712        0.9692808525       20.5346858975
  H         8.0792786839        1.2567930447       19.0375519339
  C         6.4912954304        2.6969887994       19.8380913769
  H        10.2752863086        1.1774739434       19.6842329216
  H        10.0816627348        1.0132016918       21.3949217047
  C        11.5274091286        2.5513399186       21.0171255332
  H         9.6132577819        3.4737603661       17.7558342343
  C        10.2965946996        6.3452911079       17.0742852927
  H         0.8344093274        3.4171113954       28.1537182533
  H         0.2995297271        4.8942268354       27.4080265635
  C         1.0455600405        5.2792259984       29.3560751285
  C         5.3306490560       -0.5356397462       32.5587594851
  H         6.7107235036        3.4753013534       19.1491097545
  H         6.2596670517        3.1426187588       20.8060521134
  C         5.2387958822        1.9356871842       19.4175774346
  H        11.4699589202        3.1947819182       21.8043529220
  H        11.8062465562        3.2110990574       20.1608380132
  C        12.7011663831        1.6280274012       21.3197379371
  C        10.3795151040        7.7478015789       16.9245135094
  C        10.5066866837        5.5332353557       15.8336576447
  H         0.7903592685        6.2446766149       29.0141109280
  H         0.2090186065        4.9275086677       29.9878727040
  C         2.3507778024        5.3632914729       30.1466139815
  H         5.3354688857       -1.6267914378       32.4931500467
  C         5.0791156033       -0.1287066685       33.8379472656
  H         4.4128613475        2.5294126427       19.6996768360
  H         5.1993179598        1.1020283870       20.0578018238
  C         5.2524116962        1.3295796710       17.9848459870
  H        12.5212455824        1.0704899176       22.2473354837
  H        12.7385842202        0.9135010845       20.5260012740
  C        13.9627703611        2.5645185300       21.5205950900
  N        10.0414623465        8.7439789527       17.8503080006
  C        10.7022564774        8.3382090658       15.6893473597
  C        10.9653236901        6.0862068417       14.6344328944
  H        10.5857799677        4.4661608199       15.9618884829
  H         2.6483343531        6.3714615752       30.2260430363
  H         2.1733278672        5.0647727247       31.2114618231
  H         3.1065404563        4.6221251415       29.7780391821
  S         4.8380998087        1.5143087264       34.4015950528
  C         5.0274750030       -1.1569528707       34.9286077357
  H         5.4795023837        2.1108005763       17.2201201882
  H         6.1693547096        0.7545573431       17.8016024872
  C         3.9570675057        0.5617900252       17.5554268302
  H        13.8985526992        3.1530465871       22.3935427241
  H        14.0163694997        3.2619693745       20.7203010742
  C        15.3397199032        1.8059762477       21.6327690871
  S        10.3635052525       10.2089000218       17.2304949915
  N        10.7355978710        9.7299949946       15.7288313911
  C        11.0174747459        7.6065686781       14.5099290859
  H        11.1954296989        5.3840362681       13.8516042870
  C         4.5734506622        0.8267495523       35.9704928059
  N         4.7444260405       -0.5178408715       36.0775948471
  O         5.1825918149       -2.3583105646       34.6687216850
  H         4.2181418340        0.1330063026       16.6079347540
  H         3.2086403671        1.2634933532       17.4499528322
  C         3.5499888408       -0.4964818956       18.4490106472
  H        15.2001362187        0.8073306261       21.9827717252
  H        15.8731368556        1.7143114526       20.6447111550
  C        16.3288360666        2.3433042070       22.6739256322
  C        11.4073167678        8.3196225050       13.2816662246
  S         4.4094544480        1.5627144609       37.4937866509
  C         4.8385800522       -1.2279748965       37.2930973518
  H         4.3808036143       -1.1722502407       18.4977796962
  H         3.3442336858       -0.0619665641       19.5040258868
  C         2.2884203802       -1.1805487044       18.0014277019
  H        15.8945877508        2.3833827563       23.6446384082
  H        16.5193964580        3.3479343616       22.3426147503
  C        17.6288022740        1.5305992047       22.7138491144
  H        11.1277873901        9.3393908324       13.2635479626
  C        11.7432852316        7.9464136606       11.9998655491
  H         4.1533745732       -0.9434307929       38.0586448186
  H         4.3835936251       -2.1729531246       37.0036811409
  C         6.2442353055       -1.5599521006       37.7249641686
  H         1.5040929572       -0.4309678231       18.1106433606
  H         2.0565363557       -2.0446931776       18.6845647310
  C         2.3953039017       -1.9166745921       16.6872474786
  H        18.0992084553        1.4624343567       23.7300917754
  H        17.1974993855        0.5725250050       22.3398572171
  C        18.6718844683        2.0620177663       21.6458465498
  S        12.3926717304        6.4877454050       11.5357726858
  C        11.8110096278        9.1230097829       11.0215363944
  H         6.3070527564       -1.4037558988       38.8265629385
  H         6.5062346762       -2.5781599424       37.5648745240
  H         7.1534670286       -0.9670254723       37.4212851079
  H         2.3755944976       -1.1325690357       15.8872250613
  H         1.5695187885       -2.5771560202       16.6462592913
  H         3.3623392125       -2.5144991835       16.6268851183
  H        18.0831521962        2.5489113555       20.8528995138
  H        19.3169722279        1.2366156898       21.2255894760
  H        19.3966208614        2.7942593606       22.0256697139
  C        12.6713822592        7.3219577118       10.0302839382
  N        12.4536588120        8.6545298250        9.9832071030
  O        11.4513715436       10.2655581486       11.1039848286
  S        13.4548908418        6.4864416429        8.6812768656
  C        12.7026958920        9.4792314291        8.8310315740
  H        12.9766262014       10.4825628071        9.1933770421
  H        13.5973803671        9.0817127319        8.2493165702
  C        11.5265058585        9.5689681344        7.8474577707
  H        10.6055367984        9.5807666870        8.3818451546
  H        11.5966247630       10.4596174708        7.1597574770
  H        11.5379349857        8.6601151060        7.2194850994
  H        -3.2857481090       14.5669279305       17.0212679462
  C        -2.9663256831       13.5553690640       16.7486764855
  H        -3.8195063732       12.9701000823       17.1982460644
  C        -1.6538002418       13.2091406418       17.5057621468
  C        -2.8828026866       13.4320014662       15.2552856229
  C        -1.6634510300       13.8308791393       18.8954890165
  H        -1.4529631956       12.1465954821       17.5897975343
  H        -0.9102962438       13.6623373649       16.8525676219
  H        -2.0927990953       14.0003323183       14.8039765184
  H        -2.9973558807       12.3273412693       14.9551134119
  H        -3.7580179494       13.8695912852       14.8332806505
  C        -1.5358922471       12.7349208259       19.9361695747
  H        -2.6194085031       14.3559017007       18.9587978163
  H        -0.7641432578       14.3475086015       18.9427305000
  C        -1.9228455537       13.2946320344       21.2802634915
  H        -2.1821611810       11.9426631801       19.5758069238
  H        -0.5722931850       12.2922226551       20.0351021857
  C        -0.9822528870       12.6727961678       22.3288141902
  H        -2.9561224743       13.2228186114       21.5734643900
  H        -1.8287282792       14.3522311765       21.1440144463
  C         0.2430600828       13.5964382338       22.6189434637
  H        -1.6208692522       12.6004560785       23.2062937154
  H        -0.7612524564       11.6200050223       22.0807386549
  C         1.3909905480       12.9580432051       23.4130299786
  H         0.6547157925       13.9803000004       21.7068086951
  H        -0.0665632968       14.4266425150       23.2106802341
  C         1.8091427260       11.7106247379       22.7770859815
  C         0.9688362741       12.3039334031       24.6232216049
  C         2.5589349786       14.0047804586       23.6552766250
  C         1.5998473281       10.6146479979       23.5296218090
  C         2.2663291836       11.4122899932       21.5271039155
  C         1.0631139493       10.9376692463       24.7847915275
  C         0.4967660278       12.9103003945       25.7518519051
  H         2.8588991328       14.5105375861       22.7591912037
  H         2.1345243795       14.7110813277       24.3674508878
  C         3.8577326193       13.4283411794       24.2120216090
  S         2.0287083275        9.1338448245       22.7348900365
  C         2.4316376854       10.0655189502       21.2927868136
  H         2.4531809112       12.2273833476       20.8660807501
  C         0.7020098871       10.2655497002       25.8930345635
  H         0.4187918283       14.0061593455       25.6840452848
  C         0.0853282640       12.2364088480       26.8766732079
  H         4.1573345068       12.6493069248       23.5878030156
  H         3.6932882506       13.0021132464       25.2370066855
  C         4.9120173276       14.5493132834       24.2807999454
  C         2.9201485832        9.4507579326       20.0029960708
  C         0.1491519497       10.9201209132       26.9736115858
  H         0.8857292587        9.1503636031       25.8076971434
  C        -0.3136132643       12.6859629403       28.0875492733
  H         5.6424427565       14.1775046116       25.0048488769
  H         4.5318562110       15.4950468196       24.6513452381
  C         5.7000172448       14.7004822192       22.9479061627
  C         2.9399728853        8.0476810329       19.7387268356
  C         3.4400903711       10.3450242971       18.8807739709
  C        -0.2095749812       10.2197230435       28.1772046720
  C        -0.4750153103       11.5981073914       28.8736858525
  S        -0.5153621038       14.1988237282       28.8995252011
  H         6.2524033491       15.6412726859       23.0646806352
  H         5.0574717271       14.8776482102       22.0265119156
  C         6.6854516073       13.4912481633       22.7329046042
  N         2.7014160676        7.0830103100       20.6765524892
  C         3.1938567654        7.5351813009       18.4830280477
  C         3.7474307119        9.8322804205       17.6154132557
  H         3.5489264724       11.4190936041       19.0999632001
  C         0.9086997815        9.4708446396       28.8852033506
  C        -1.5558109337        9.4436927503       27.9197108690
  C        -0.7477924532       12.0060417322       30.1534585163
  C        -0.8611985527       13.3365384176       30.3958451982
  H         7.2634075750       13.3133294010       23.6686293923
  H         6.1578172260       12.5520538652       22.5940555624
  C         7.6371585376       13.7201321649       21.6569699773
  S         2.7695587721        5.6437715513       19.9747669680
  N         3.0164182756        6.1631389288       18.4179585357
  C         3.6104233171        8.3186391541       17.3543781325
  H         4.2981822083       10.4181625144       16.9177912158
  H         1.2994166131        8.6292184320       28.2827324560
  H         0.5499884756        9.1048246563       29.7918964598
  C         2.1056441526       10.3137406560       29.1828979397
  H        -1.4934769180        8.7336220083       27.0891591473
  H        -1.7594055202        8.7951706241       28.7880298921
  C        -2.7810406454       10.2667446630       27.4946080731
  H        -0.9181631019       11.2490417014       30.8836959655
  C        -1.2272420200       13.9421434120       31.7005782617
  H         8.5079587536       13.0325991000       21.8633286346
  H         8.0107305920       14.7373445090       21.7303826633
  C         7.0091718639       13.5066597019       20.2758971342
  C         3.8038313487        7.5883616042       16.1888598090
  H         2.5686721852       10.6438661659       28.2571701225
  H         1.8880967838       11.2920669080       29.6246307184
  C         3.1556218351        9.4369332643       29.8796355265
  H        -2.4772420251       10.7677103771       26.5870352280
  H        -3.2434521952       10.9587816947       28.2614432521
  C        -4.0173099607        9.3821927424       27.2897421502
  C        -1.2817712611       15.3269396928       31.9409837952
  C        -1.4435612611       12.9892246745       32.8268400887
  H         6.7969727360       12.4506764162       19.9065613411
  H         6.0069327199       13.9614250393       20.3583109047
  C         7.6987725347       14.1358647999       19.0970068184
  H         3.7975393363        6.5545711074       16.2719764556
  C         4.0456770400        8.0299368408       14.8672164770
  H         3.6092170357        8.7707535713       29.1527012661
  H         2.6965823919        8.8110880300       30.5885673674
  C         4.2202491490       10.2571633508       30.6043287411
  H        -3.7637922976        8.6213225229       26.5700806439
  H        -4.1931423421        8.8083349812       28.2104958659
  C        -5.2403737378       10.1608766431       26.8625361880
  N        -0.8550125516       16.4090816972       31.0868165562
  C        -1.5909775894       15.7593049432       33.2044056484
  C        -1.8088822285       13.4939991014       34.0631711820
  H        -1.4156394035       11.9551537858       32.6982662560
  H         8.3968054084       14.8248001481       19.4836406702
  H         8.1370098397       13.3877905021       18.4736253925
  H         7.0261842343       14.8435854104       18.4839290597
  S         4.3793398076        9.6332334799       14.3571446393
  C         4.0290508440        7.0046286510       13.8127033860
  H         4.7135215256       10.8844336877       29.8353069950
  H         3.7375685483       11.0308466921       31.2782227621
  C         5.3026186356        9.4952660588       31.3984894552
  H        -4.9393249037       11.2320221683       26.8993369236
  H        -5.9430481887       10.0919080505       27.6622929912
  C        -5.8009023144        9.7811800071       25.4982221865
  S        -1.2364180943       17.8011606404       31.7921014017
  N        -1.6497312756       17.1474777440       33.2198899908
  C        -1.8856557799       14.9314313358       34.2820208766
  H        -2.0814754896       12.8615921744       34.8816920260
  C         4.4947060729        8.8806792904       12.7454621210
  N         4.3471994464        7.5593332910       12.6668070050
  O         3.8085709084        5.7773292106       13.9911643254
  H         4.7841818514        8.8283164871       32.1092746067
  H         5.8307177158       10.2210583838       31.9539897504
  C         6.2906289035        8.8895446694       30.3348937165
  H        -5.1329662560        9.9548118867       24.6895279154
  H        -5.8970579832        8.7389210395       25.4951851614
  C        -7.0878716201       10.4430468276       25.1250381894
  C        -2.1252851779       15.6255751267       35.5197854706
  S         5.0254019475        9.8070797343       11.2969255805
  C         4.5521623244        6.8481511192       11.4333885333
  H         6.1713599933        9.4380912507       29.4198666896
  H         7.2906165462        9.0820403393       30.6529285419
  C         6.0973501253        7.3690171230       30.0230094491
  H        -7.1512340676       10.5532167519       24.0516581654
  H        -6.9981327606       11.4592432665       25.4807649038
  C        -8.3899273858        9.8095204486       25.6086301606
  H        -1.7209230731       16.6386700732       35.5943390209
  C        -2.7407272617       15.2389166236       36.6476451953
  H         5.0717315379        7.4905232991       10.7100249337
  H         5.1981284235        6.0401459247       11.6122053327
  C         3.1799017204        6.2332411898       10.8881222697
  H         6.3679353348        7.0961834260       28.9828864192
  H         5.0860227980        7.0444791668       30.1645017295
  C         6.8913338427        6.4466651128       30.9499973644
  H        -8.9280256293        9.3257257963       24.7975028045
  H        -8.0966295839        8.9444244995       26.1990016637
  C        -9.3080448531       10.6172715215       26.4627080407
  S        -3.4654313277       13.7741936025       36.8880713624
  C        -2.7445680644       16.1600035292       37.7890601393
  H         3.0003107453        6.3012789203        9.7645605852
  H         3.1174500415        5.1739219634       11.1567178051
  H         2.3625881436        6.6360863494       11.4203044761
  H         6.2631642302        5.6331421726       31.4451731121
  H         7.3014262697        7.0754682186       31.6910034353
  H         7.7848466441        5.9450803923       30.5013044345
  H        -9.4169212539        9.9992825841       27.3963835450
  H       -10.2852487590       11.0065787591       26.0018275836
  H        -8.8539401157       11.6133809282       26.6794527171
  C        -3.7614673862       14.3495308420       38.5082325390
  N        -3.4832806151       15.6322978557       38.7467035157
  O        -2.0939460767       17.2272721993       37.9097433996
  S        -4.7688490269       13.5245775158       39.7204682692
  C        -3.7912574238       16.4270757943       39.9728214667
  H        -3.9642967219       17.5436195448       39.8113498294
  H        -4.7563420717       16.0736236600       40.3506384264
  C        -2.6844330560       16.3443284831       41.1199743285
  H        -1.7633156953       15.9771119730       40.6289306467
  H        -2.4904304089       17.3375740233       41.4576771737
  H        -2.9266174331       15.6436500738       41.9122345970
