352
 i =    88000, time =    88000.000, E =        25.0410867501
  H        10.0122076720        7.3309453719       31.2924244277
  C        10.8104282443        6.7810693033       31.7559528589
  H        11.6758371608        7.4598663254       31.7527810228
  C        11.1653858903        5.6880738730       30.6847875501
  C        10.5824916786        6.2909321719       33.1993578234
  C         9.9180623740        5.1437387357       30.0550672976
  H        11.5959188728        6.1204695866       29.7283229803
  H        11.8981698939        4.9426944644       31.0278667115
  H         9.6288823646        5.8052205631       33.2665257025
  H        11.3338295071        5.5965244346       33.6481709747
  H        10.5521017819        7.1796885161       33.8060152246
  C         9.4440690533        5.9993235730       28.8512636273
  H         9.2181597251        5.1336616301       30.9238369823
  H        10.0488922214        4.1609238133       29.7992838400
  C        10.1265792619        5.6545706360       27.4996408744
  H         8.3693020418        5.7355063193       28.7264608573
  H         9.4265556617        7.0913250892       28.9876054554
  C         9.2078389346        4.9166739701       26.4752482147
  H        10.9696889516        4.9495766626       27.6959354897
  H        10.7040484642        6.4653850355       27.1152170634
  C         8.0983090574        5.7646707224       25.9133508900
  H         9.7543581023        4.6872949009       25.5752277846
  H         8.9317069427        4.0280139459       26.9734807493
  C         6.9397138612        4.9522626647       25.2449365346
  H         7.6509566770        6.4274010647       26.7111115560
  H         8.4138274649        6.5523850879       25.2405363765
  C         6.5560159205        3.6313482998       25.9526070240
  C         7.3976015294        4.1841649515       24.0878102125
  C         5.7080986247        5.8461584313       24.7339196764
  C         6.6651590939        2.5071117489       25.1743515691
  C         6.1975106033        3.3125956768       27.2576228729
  C         7.3401836545        2.8252228050       23.9707393157
  C         7.9690224957        4.8045396220       22.9764775992
  H         5.1829036076        5.2221623970       24.0229801566
  H         5.9653484976        6.7419393494       24.2486244181
  C         4.8150802521        6.2734110944       25.8739916494
  S         6.2820598178        1.0342264246       26.0678826809
  C         5.9326640069        1.9823370371       27.4212269731
  H         6.3687895356        4.0825484765       27.9765759079
  C         7.9091178482        2.1767589236       22.8937851640
  H         8.2636950620        5.8416019359       22.9333348556
  C         8.3962835420        4.1669289292       21.8215924409
  H         5.1492351522        5.8143742725       26.7751577341
  H         4.9722439672        7.3732562964       25.9929282494
  C         3.3177504615        6.0556449270       25.5926909548
  C         5.5612036677        1.3256447570       28.7309972558
  C         8.4132500294        2.8520238414       21.7781264593
  H         7.8522571401        1.1658226395       22.6995045797
  C         8.8989571060        4.5819603386       20.6401085250
  H         3.2404478368        5.0162517213       25.3788749550
  H         3.0654479582        6.7226774262       24.7229934370
  C         2.4660955228        6.3074597085       26.8599367255
  C         5.6355561812       -0.1056095421       28.9837200591
  C         4.9988702263        2.1334545663       29.8278939335
  C         8.9025372736        2.1749967724       20.5876885551
  C         9.1671705392        3.5228779794       19.8024521715
  S         9.1819141391        6.1338080111       19.8724357847
  H         1.4710985303        6.6813253597       26.6158536421
  H         2.9625992764        7.1963526180       27.3724793374
  C         2.2470702906        5.0644219787       27.7381292991
  N         5.9570761157       -1.1526971350       28.0647503672
  C         5.3691866353       -0.6345798353       30.1952751327
  C         4.6882337027        1.5773818573       31.0442496211
  H         4.7703327034        3.1681787103       29.7280158190
  C         7.7543850580        1.4452530498       19.7908723479
  C        10.1426769981        1.3167281193       20.7410587282
  C         9.7395744381        3.9508026703       18.5994443662
  C         9.7089122321        5.3029036955       18.4418626621
  H         2.0652194812        4.1896552126       27.1340846384
  H         3.0806569669        4.8402766498       28.4170640004
  C         1.0047211259        5.2852627307       28.6595487651
  S         6.0470502781       -2.5566967168       28.8139551917
  N         5.7018373183       -1.9756844159       30.2739480586
  C         4.9343734460        0.0619629850       31.3028605930
  H         4.2719432486        2.1818838898       31.7816866344
  H         7.5466297338        0.4652033324       20.1919501386
  H         8.1363373818        1.2987569698       18.7692948782
  C         6.5258198086        2.3463174780       19.5650296499
  H        10.2389121143        0.7069829533       19.8227082104
  H        10.0411281433        0.5750066414       21.5427569116
  C        11.4187748824        2.1941409742       20.8280485845
  H         9.8236802507        3.2520157916       17.7685264884
  C        10.0538042712        6.0862648832       17.1678654398
  H         0.6049733426        4.3127083443       28.9437318999
  H         0.3212610378        5.9039267523       28.0038564483
  C         1.3068812672        5.9497991169       30.0053253086
  C         4.7644421404       -0.5402172599       32.5970055490
  H         6.7182958493        3.3551792907       19.1359875993
  H         6.2254059192        2.6777159350       20.5746731083
  C         5.5189257947        1.5473082439       18.7662876332
  H        11.2506631901        2.9818966629       21.5210079595
  H        11.7382016333        2.6445629116       19.8432160659
  C        12.6966867754        1.4187475148       21.4207772758
  C        10.0425654824        7.4739317143       17.0135190081
  C        10.6307855294        5.3104157126       16.0461053014
  H         1.8688061206        6.8414461250       29.8955585917
  H         0.3217644107        6.2579891614       30.4351461605
  C         2.0221628464        5.0217441277       30.9315773654
  H         4.6577361076       -1.5687559057       32.5993680711
  C         4.5806947522        0.0082869153       33.8787602327
  H         5.2273313153        0.5899717480       19.2286267514
  H         6.0885929016        1.1826612092       17.8657929633
  C         4.2549262104        2.3725992195       18.5507306847
  H        12.4769831073        1.4105142409       22.4972662940
  H        12.7961738801        0.4229413110       21.0795459873
  C        14.1182702224        1.9420225194       21.1620469902
  N         9.6707595424        8.4231992902       17.9952874419
  C        10.4723403100        8.0652858212       15.8432692135
  C        10.8769871454        5.8958550075       14.8110332229
  H        10.9015553794        4.2050459462       16.1704794943
  H         2.7236178411        5.5462766958       31.5630399155
  H         1.3032283695        4.5088763269       31.5742916042
  H         2.4946503864        4.2236764285       30.4284987031
  S         4.3026521935        1.6840011767       34.3090039242
  C         4.5273513303       -0.9036456370       35.0664605784
  H         4.3427990302        3.2216785700       19.0757318933
  H         4.1091895378        2.6280485425       17.5037674566
  C         2.9803691220        1.6240900147       18.9646859742
  H        14.0904170105        3.0312460259       21.2568281587
  H        14.3714631659        1.7140590815       20.1153136645
  C        15.0295441475        1.3330949175       22.2271984559
  S         9.8469485458        9.8700249344       17.4390491139
  N        10.4266826299        9.4963221211       15.9705713648
  C        10.7261435174        7.3496160250       14.6219201868
  H        10.8842102896        5.2944842041       13.8808382559
  C         4.0907293480        1.1372229607       35.9886648696
  N         4.1173676602       -0.1949988504       36.1844519759
  O         4.6229515119       -2.1467695861       35.0221150159
  H         2.2547430204        2.4348535533       19.2917818546
  H         2.9383823724        1.0073875704       19.8766471229
  C         2.4257559732        0.6037828686       17.9711784967
  H        14.5273562594        0.6242763910       22.9094161474
  H        15.7634695189        0.7821930455       21.6882920500
  C        15.8900061957        2.3497990281       22.9536756108
  C        10.8886239746        8.1111107878       13.4418159001
  S         3.5676128834        2.1618934661       37.3268457471
  C         4.1231243693       -0.8241267021       37.5044346614
  H         1.4484100378        0.2831745026       18.2935334056
  H         2.2313998672        1.0603137646       16.9716984004
  C         3.1536465088       -0.7845215266       17.9743163337
  H        15.3699052285        2.9331769033       23.7148198279
  H        16.1986330367        3.1491306213       22.2487712478
  C        17.0637092256        1.7332538263       23.5874603507
  H        10.8194645685        9.1855687422       13.6547089527
  C        11.4998506207        7.8144384885       12.2679124957
  H         3.4172157055       -0.3826922648       38.2170296470
  H         3.8895166468       -1.8174332819       37.2809152552
  C         5.5373990913       -0.8260655716       38.1492736699
  H         3.2330131649       -1.3444645555       18.8724719935
  H         4.1367292751       -0.4719919437       17.7121617800
  C         2.5324794133       -1.6289082362       16.9048694991
  H        17.3746956330        2.3117512376       24.4725234510
  H        16.9404000422        0.6922786881       23.9711449743
  C        18.2340382074        1.7105569274       22.6030723452
  S        12.1243062475        6.3162509927       11.7601431649
  C        11.7238714822        8.9637843705       11.2182917422
  H         5.4748563966       -0.5363816391       39.2434715113
  H         5.9119076122       -1.8615949354       38.1031439292
  H         6.3030305292       -0.1973331984       37.6946777675
  H         1.7218724132       -2.2539100241       17.3504878908
  H         3.2489683419       -2.2626051754       16.3586152093
  H         1.8893645940       -1.0357574559       16.2069234874
  H        18.3386278739        2.6761245094       22.0534908227
  H        18.0150461560        0.8861335542       21.9366155675
  H        19.1101018742        1.5741956797       23.1823704986
  C        12.5899201341        7.1335490599       10.2027541074
  N        12.3713750154        8.4561775830       10.1603519360
  O        11.2633688624       10.1081042818       11.3653149813
  S        13.2082465714        6.3703088697        8.7936428925
  C        12.4801656993        9.1892755592        8.8205901500
  H        12.5569582833       10.2404485582        8.9354426065
  H        13.3577282291        8.9712597240        8.1905702295
  C        11.1846791829        8.9309015226        8.0263683985
  H        10.2682546998        9.0920229239        8.5776575176
  H        11.2047338075        9.5771571651        7.1485467017
  H        11.0937086195        7.9333269172        7.5630805082
  H        -3.6128570702       14.7789307762       15.9192096957
  C        -3.4721838119       13.7807718738       16.1699876380
  H        -4.4347335996       13.5135509588       16.6638050156
  C        -2.2707542586       13.6233132560       16.9948291846
  C        -3.3241398396       13.1296983249       14.8374597947
  C        -2.3548523200       14.1290992052       18.4059444282
  H        -2.1271687639       12.5294734995       17.1346342844
  H        -1.3791292568       13.9137491884       16.4406464914
  H        -4.3458615769       13.1564106109       14.4233311155
  H        -2.4572609202       13.6782359765       14.3721252594
  H        -3.0979596125       12.0958287948       14.9751770130
  C        -1.7784147601       13.2798644404       19.5125641104
  H        -3.3131398115       14.4025548977       18.6128731811
  H        -1.7365021784       15.0036939001       18.4770945860
  C        -2.2848824398       13.6415531341       20.9068280652
  H        -2.0388660523       12.2010238799       19.3595451703
  H        -0.6823926827       13.2042290685       19.5426847578
  C        -1.5325245675       13.0221864630       22.0756446738
  H        -3.3529271547       13.3229668108       20.9742633062
  H        -2.3190902884       14.6934108912       20.9997693137
  C        -0.4701824503       13.8962158678       22.7318710116
  H        -2.2202127357       12.7170539657       22.8333920890
  H        -1.2143642014       11.9815469266       21.8196858201
  C         0.7306108392       13.2110055945       23.3873786539
  H        -0.0010618730       14.4759957586       21.9735310965
  H        -0.9817491105       14.5603743786       23.4505722085
  C         1.1738827402       11.8718840545       22.6815735647
  C         0.4860227764       12.4143436738       24.6248239683
  C         1.9350916326       14.2181976740       23.3671407752
  C         1.1021564769       10.7655607801       23.5049240059
  C         1.7383367718       11.4939058766       21.4739973254
  C         0.6248562508       11.0646297202       24.7597877776
  C         0.0047323085       12.9888997313       25.7999805299
  H         2.0502461773       14.6291614565       22.3779823207
  H         1.5739574690       15.0489412525       24.0495640058
  C         3.2213743013       13.4363525450       23.9745152895
  S         1.7497305453        9.2667343457       22.7601109671
  C         2.0934321116       10.1482997159       21.3383368508
  H         1.8077105178       12.2429823657       20.6929045892
  C         0.2974562185       10.4112541883       25.9515108335
  H        -0.1822940129       14.0607085836       25.6191794717
  C        -0.3244804349       12.3820587013       26.9381676300
  H         3.4527726189       12.4726372874       23.5311463550
  H         2.9550605466       13.3540620739       25.0607195690
  C         4.4991761240       14.3078361240       23.8631020652
  C         2.6062633421        9.5234425199       20.0252204861
  C        -0.2820424960       11.0376347126       27.0453644784
  H         0.5450558217        9.3433298506       26.0125655969
  C        -0.6729554929       12.7187474081       28.2092010356
  H         5.2008324751       14.0472490909       24.5648469496
  H         4.2588528130       15.3502237736       24.1278716535
  C         5.1846372500       14.1990603189       22.4971030830
  C         2.6570599145        8.0939559936       19.7966685641
  C         3.0148385617       10.3368699475       18.8567807734
  C        -0.5718192660       10.2967144770       28.3283238248
  C        -0.8453889951       11.6338225113       29.0702782371
  S        -1.0948756817       14.1850561144       29.0247990637
  H         5.8939877274       15.0720809185       22.4096788581
  H         4.3900318010       14.3448070530       21.7882732074
  C         5.9754507050       12.9454672536       22.2819743937
  N         2.3016463003        7.1634382734       20.7529763403
  C         2.7767320942        7.5099469813       18.5275019783
  C         3.3754040090        9.7048889656       17.6391973402
  H         3.1767183236       11.3954727192       18.8942678517
  C         0.5434031379        9.4175407625       28.8771484140
  C        -1.8411846737        9.4508488127       28.1798064771
  C        -1.4441429454       11.9877327358       30.3287267812
  C        -1.4446722214       13.3585763854       30.4512770492
  H         6.6911762508       12.8082586963       23.0891014503
  H         5.3956796428       12.0779552360       22.3790995213
  C         6.8509010145       12.9329614063       21.0059904695
  S         2.2250604704        5.6821306401       20.0885067398
  N         2.5798524954        6.1185834709       18.5219926187
  C         3.1272690721        8.2423199948       17.3624409260
  H         3.9352395826       10.2338470851       16.9170082985
  H         0.7263672032        8.5471620313       28.2597805709
  H         0.1564098089        9.0378803209       29.8708076575
  C         1.9193405552       10.0876972187       29.0897616744
  H        -1.5175238952        8.6845302340       27.4589768630
  H        -2.0452246164        8.9880167690       29.1328287799
  C        -3.1214287549       10.0981744551       27.6324647729
  H        -1.6292473214       11.2489086307       31.1022227817
  C        -1.8240804472       14.1238671897       31.7188726565
  H         7.5705859875       12.0927117172       20.9118304934
  H         7.4457436992       13.8347696378       20.9736709413
  C         5.9568103005       12.8789402817       19.7506018611
  C         3.3790529153        7.4851122971       16.1998042584
  H         2.3238907507       10.4893891118       28.1091381148
  H         1.7081940455       11.0020744507       29.6488171425
  C         2.9276684413        9.1862558637       29.7058682348
  H        -2.9197233401       10.7901317738       26.7850630069
  H        -3.4630423007       10.7499616322       28.4338054984
  C        -4.1344058247        9.1109676801       27.1824203762
  C        -1.7838336908       15.5378226951       31.8488538815
  C        -1.9369060732       13.3522288422       33.0065302538
  H         5.4374402451       11.9522695684       19.6667548125
  H         5.1463520796       13.6211085416       19.9323151479
  C         6.6942729307       13.3532116300       18.5214393058
  H         3.2491327967        6.4139328788       16.3123509270
  C         3.7593703644        7.8923578963       14.9682128628
  H         3.2649155410        8.4203263033       29.1010699274
  H         2.4892581983        8.7842091541       30.6145470854
  C         4.1425798743       10.0168801177       30.0705163814
  H        -3.7733733658        8.7994283983       26.2217509018
  H        -4.0930098371        8.3061224020       28.0104819326
  C        -5.5139744447        9.7405266291       27.1063210766
  N        -1.4825414357       16.4295538723       30.7761341964
  C        -1.8831507199       16.1268227206       33.0707431572
  C        -2.0709526811       13.9817328379       34.2289823284
  H        -1.9220057370       12.2606407028       33.0431024337
  H         6.3904306672       12.6365299735       17.8220843548
  H         6.3853886713       14.2995880367       18.1667994700
  H         7.8020763434       13.3238038218       18.7347257477
  S         4.0850557116        9.5026668553       14.3303523363
  C         3.7659758790        6.7827224153       13.9125494341
  H         4.5434767666       10.3031263288       29.1987994155
  H         3.8228380054       10.9494622631       30.5120576922
  C         5.2104888827        9.2386989987       30.9228442328
  H        -5.3920101623       10.7992508410       27.3823425399
  H        -6.0528692975        9.2403101915       27.9397649965
  C        -6.0344222557        9.5920499875       25.7077618517
  S        -1.5210350519       17.8879032077       31.3949079985
  N        -1.7079912021       17.5552829842       32.9806226491
  C        -2.1974324518       15.4923282807       34.3033748750
  H        -2.2386601929       13.4166368826       35.0857994242
  C         4.2664046554        8.6792036144       12.7760252188
  N         4.1022226704        7.3302950655       12.7585881578
  O         3.4394508310        5.5687397609       14.1689480065
  H         4.6299195404        8.6780035976       31.6925386615
  H         5.7677354458        9.9382627523       31.5266817039
  C         6.1599673444        8.3603181465       30.0391561791
  H        -5.3274498557       10.0329136824       25.0220313304
  H        -6.3015013243        8.5203605577       25.4514847748
  C        -7.2569323310       10.4917483986       25.6430139776
  C        -2.5234483304       16.2378490889       35.4771358948
  S         4.6131524985        9.4547057177       11.2318995002
  C         3.9670589621        6.5827572775       11.4529421136
  H         6.0665145394        8.6903744695       28.9977395944
  H         7.2021296627        8.5011395799       30.2935966351
  C         5.8111713408        6.8202002354       30.1942731283
  H        -7.7070156877       10.3592969765       24.6940878175
  H        -6.9384340849       11.4607426586       25.9052342024
  C        -8.3156097009        9.9985639587       26.6487705498
  H        -2.0481539502       17.2289188563       35.4318316265
  C        -3.1002275218       15.9383661810       36.6992269233
  H         4.5909588829        6.9885980932       10.6251091411
  H         4.3537253845        5.6165056116       11.6554666048
  C         2.4286104990        6.4857591783       11.0091715706
  H         6.4792330643        6.2023687547       29.6433641380
  H         4.8069750366        6.5654561139       29.8985444734
  C         6.0926388136        6.2701082722       31.6072781877
  H        -8.2707743751        8.9220859702       26.5912473007
  H        -8.0919441521       10.1897365254       27.6867225349
  C        -9.8348254559       10.4380678100       26.4276231158
  S        -3.6595692723       14.3520351053       37.1236014824
  C        -3.0802668067       16.9606890585       37.8103621981
  H         2.1179903977        7.3817138999       10.4769725162
  H         2.0988612134        5.6405287821       10.3516882431
  H         1.6720093724        6.4596449664       11.8232747165
  H         5.3794071457        5.4738796343       31.9381162213
  H         6.2185137386        7.1328107723       32.2552437395
  H         7.0477507529        5.8368901524       31.6375184568
  H        -9.9521463076       11.5368838430       26.6942604431
  H       -10.6993846650        9.9504342093       27.0228177489
  H       -10.0913289373       10.3861744235       25.3945484900
  C        -3.9421924920       15.0452744366       38.7288167748
  N        -3.6536802771       16.3875327197       38.8506430188
  O        -2.6835163568       18.0725998793       37.5720583417
  S        -5.0768992657       14.4476210077       39.9578380059
  C        -3.8459679174       17.2116447056       40.0235028238
  H        -3.9523035695       18.2157508148       39.6524810576
  H        -4.8086202762       17.0674652985       40.5253623968
  C        -2.6461668241       17.2030795768       40.8412547277
  H        -2.8569901553       16.4151640278       41.5284559646
  H        -1.7370139894       16.9844160394       40.3160935651
  H        -2.5354112168       18.1310365200       41.3754580231
