352
 i =    40200, time =    40200.000, E =        24.7185967684
  H        11.4498091720        6.8780624326       32.5247610481
  C        11.0253097169        5.9273792327       32.4641285256
  H        11.8466422716        5.2780128893       32.4177694874
  C        10.0112442249        6.0498629879       31.2616407941
  C        10.3058112704        5.3784934978       33.7183826570
  C        10.6070940064        6.3329961184       29.9011291222
  H         9.1605239899        5.3175694098       31.2257650771
  H         9.5048430322        6.9470796171       31.2926563216
  H        10.1294090746        4.2609364560       33.6860870741
  H        10.8766981189        5.6019109857       34.5978145702
  H         9.3907203219        5.8569493830       33.8983928506
  C        10.0594276667        5.3793192568       28.8736594599
  H        11.7015801206        6.2324265728       29.9486165439
  H        10.4916824320        7.3457721349       29.5271851272
  C        10.4770654203        5.6422554193       27.4837638396
  H        10.4367159972        4.4319687559       29.2985563947
  H         8.9693162324        5.3135110567       28.8915585771
  C         9.6423675441        4.9364025799       26.4551396978
  H        11.5279738368        5.3494483049       27.2377310945
  H        10.3520919558        6.7278463379       27.4025577157
  C         8.4560473229        5.9173761622       26.0295151179
  H        10.2910106828        4.7322281784       25.6111376755
  H         9.2492363132        3.9388908994       26.8003743901
  C         7.3008281550        5.1828378954       25.3970807210
  H         8.0652181468        6.5561244299       26.8800919928
  H         8.8419089152        6.5807516045       25.3144159432
  C         6.8500240938        3.8697631338       26.0779868854
  C         7.7898631069        4.5359749962       24.2068063280
  C         6.1343079302        6.2053066564       25.2783750270
  C         7.1981117295        2.7357074925       25.3143600679
  C         6.3167270763        3.4107366614       27.3216481307
  C         7.7077523804        3.1755634791       24.0765634256
  C         8.3354302211        5.1599745388       23.0371163925
  H         6.5122641547        7.1195068579       24.8339665836
  H         5.6573562932        6.3610319735       26.2561453972
  C         4.9762942745        5.6703083126       24.4179762163
  S         6.9824699892        1.1893896776       26.1148532357
  C         6.3237629229        2.0315147697       27.4841200404
  H         6.0379880803        4.2100505958       27.9855250377
  C         8.0597814580        2.5678232243       22.9191396542
  H         8.5493028926        6.1402753106       23.1674432478
  C         8.6068257161        4.5453660207       21.8595890190
  H         5.4096307201        5.3994537376       23.4238164001
  H         4.5527837588        4.7633457679       24.7841960491
  C         3.7384667178        6.6063019429       24.3285145914
  C         5.8763762980        1.3489651166       28.7507222103
  C         8.4754069139        3.1931233927       21.7231007734
  H         7.9753728014        1.5179683166       22.9230354185
  C         8.9538591308        4.8913198622       20.5856198295
  H         2.9915384873        6.2158324208       23.6314132814
  H         3.9718890937        7.6402516696       23.9782050609
  C         3.0813906187        6.8340587752       25.7042666661
  C         5.8234370620       -0.0805362031       29.0067930062
  C         5.5689673895        2.1418623427       29.9805532876
  C         8.7666326292        2.5174337185       20.4638095017
  C         9.1009642856        3.7996223318       19.7205121980
  S         9.4183271043        6.3647442498       19.7641764497
  H         2.3754464988        7.6471543798       25.4658951617
  H         3.6639275933        7.3138698166       26.4358935535
  C         2.4152240385        5.5939699079       26.3369325538
  N         6.1550690617       -1.0128588889       28.0472770891
  C         5.6338886790       -0.6943118316       30.2535681806
  C         5.3105065392        1.5585436565       31.1924026568
  H         5.3862159645        3.2128559819       29.8542926291
  C         7.5315249438        1.7536192785       19.8123385185
  C        10.1302055742        1.6900488822       20.7601062604
  C         9.5197572782        4.1969849160       18.3845572962
  C         9.6495803264        5.5354738099       18.2022486472
  H         1.5527446161        5.3520270548       25.7678589651
  H         3.1171392764        4.7656806262       26.3033074621
  C         1.8069012788        5.8925234952       27.6968491747
  S         6.1741397799       -2.5216085875       28.7079820069
  N         5.8116736701       -2.1082263410       30.1954263655
  C         5.3226969697        0.0642514097       31.3624960443
  H         4.9971384963        2.2587287881       31.8926366380
  H         7.1261480906        1.0174048009       20.5034453638
  H         7.7049328135        1.2745159358       18.8748450837
  C         6.4017345104        2.6871676899       19.2984180290
  H        10.5319657571        1.3529545383       19.8208394725
  H         9.9821985211        0.8062848169       21.4086361069
  C        11.2518659106        2.5501001211       21.2395547243
  H         9.6943975989        3.3939484328       17.6921459472
  C         9.9795817408        6.2932249864       16.9775254795
  H         0.9938589837        5.1764004747       27.7225178124
  H         1.4222674553        6.8699051633       27.6639830516
  C         2.6941885918        5.8325115583       28.9328202347
  C         5.0850444199       -0.6455578004       32.6028715411
  H         6.7609885394        3.4318110563       18.5494434079
  H         5.9791756491        3.3465871526       20.0752458897
  C         5.3052197597        1.8511783808       18.7756455851
  H        10.8943674308        2.9800814371       22.1383362128
  H        11.5974656069        3.3671412130       20.6033807511
  C        12.4878288543        1.6737105947       21.5679850464
  C        10.1493395529        7.7158123589       16.8410764315
  C        10.2228853672        5.5923875102       15.6582489744
  H         3.4407244291        5.0433689890       28.7974440219
  H         3.2553834757        6.6861351374       28.9659844369
  C         1.8140338371        5.7785768687       30.1868052190
  H         5.1757395135       -1.6731400180       32.5334303891
  C         4.8086936807       -0.2094823407       33.9217525692
  H         4.7356212370        1.4945520870       19.6473546057
  H         5.6112928969        0.9088712923       18.3217055713
  C         4.5205442448        2.6973650053       17.8567277153
  H        12.3587844441        1.2787793807       22.5330085762
  H        12.4175287527        0.8957450447       20.7979204872
  C        13.8623042303        2.3706349844       21.3074999872
  N        10.0576466468        8.5606648080       17.9373073360
  C        10.5898454688        8.3301962989       15.7342745260
  C        10.5887462121        6.2402688867       14.4487718909
  H         9.9071632585        4.5621595942       15.6010456904
  H         1.1963044372        4.8851677618       30.0704174234
  H         2.3676058685        5.5789442892       31.0820449934
  H         1.2071580272        6.7103326876       30.1683076413
  S         4.6106089234        1.4268083851       34.4523457539
  C         4.8430071073       -1.2116518110       34.9927759264
  H         4.7710721040        3.7752607220       18.0357609575
  H         4.7458624583        2.5067612915       16.7851440435
  C         3.0190467619        2.3807755090       18.0127606761
  H        13.7448854067        3.1745958233       20.5898381383
  H        14.6298907231        1.6723033621       21.0266079896
  C        14.3319131865        3.0596041544       22.5677574162
  S        10.2688013014       10.0843744593       17.4423819884
  N        10.7744498367        9.7238632298       15.9273630910
  C        10.9316745724        7.6889047235       14.4672260779
  H        10.5668561810        5.7584416722       13.5119758756
  C         4.5264180719        0.6682203252       36.0948480292
  N         4.5552699631       -0.6739820579       36.1895235249
  O         4.9315598739       -2.3881067082       34.8018075682
  H         2.4623474388        2.7691789663       17.1788358717
  H         2.6251287788        3.0157687888       18.7995037529
  C         2.5667758495        0.9112088322       18.0800694425
  H        14.9636314278        3.9031207672       22.3472046017
  H        13.4268687324        3.3560829390       22.9772052522
  C        14.9438884967        2.0172789911       23.5333792207
  C        11.3648904291        8.4607588032       13.3478326170
  S         4.0891326819        1.5305580779       37.5947241118
  C         4.6072907775       -1.4249445078       37.4588327899
  H         2.8240217381        0.6314967355       19.0607039944
  H         1.4860855620        0.8790554926       18.0344369768
  C         3.1229236198        0.0936288763       16.9071556483
  H        14.9152391168        0.9940506056       23.1914182382
  H        14.2727967351        2.0314878472       24.3788445854
  C        16.3512426115        2.3546556434       23.9709589232
  H        11.1809590137        9.5092597227       13.3837866034
  C        11.8692652793        8.0397573246       12.0813509213
  H         4.1012332003       -0.8949108629       38.2750332042
  H         4.0375997165       -2.3904565924       37.4729797196
  C         6.0184276411       -1.6748670497       37.8947011223
  H         3.9851777565       -0.2994216769       17.4586344482
  H         3.3028857456        0.7478448794       16.0567145990
  C         2.3747402037       -1.1207609243       16.4049976371
  H        16.2922887997        3.2455372746       24.5157923443
  H        16.5833439427        1.4998032811       24.5788124613
  C        17.2593843260        2.5650309079       22.7168428911
  S        12.2699505115        6.4028132003       11.5837800068
  C        11.9541120377        9.0556711669       11.0659491379
  H         6.0816905126       -2.2503473049       38.8143989903
  H         6.6411378697       -2.3204928809       37.2731279284
  H         6.3572280260       -0.6927204858       37.9797056632
  H         2.1628449427       -1.8410259053       17.1949300636
  H         2.9768894160       -1.7043449874       15.7442751382
  H         1.4983211868       -0.8373001292       15.8419921270
  H        18.2755984680        2.6367837728       22.9043761200
  H        17.0907536678        3.5222409563       22.2630457944
  H        17.0768797729        1.7738852369       22.0039752155
  C        12.7209604473        7.2359711785       10.0662246374
  N        12.5275256460        8.5481341891        9.9936045692
  O        11.5808489454       10.2064739464       11.1647265404
  S        13.2119025471        6.3936598508        8.5620969264
  C        12.5515234921        9.3436523299        8.7672514776
  H        12.7688931765       10.4252465067        8.9558510286
  H        13.3738515181        9.0319224337        8.1359980660
  C        11.1653050872        9.3069770819        8.1088721319
  H        10.6802786524        8.3080354898        8.0841306626
  H        10.5007499328        9.9170247640        8.6813379551
  H        11.1408237305        9.5158306735        7.0171101155
  H        -1.4302751715       14.7190679250       16.2975719892
  C        -2.2285939171       13.9436399975       16.5070893535
  H        -3.0913543913       14.5875954574       16.6354190964
  C        -1.8947814523       13.2765445845       17.8012099017
  C        -2.3981863464       13.0518174243       15.2798009079
  C        -2.5787083334       13.9890440193       19.0259497136
  H        -2.3276817521       12.2869577250       17.7172678684
  H        -0.8585776375       13.1943485355       18.0823600943
  H        -2.5389332211       13.5511780491       14.2793477841
  H        -1.5281300574       12.4405977272       15.1762178478
  H        -3.2571016261       12.5393758958       15.5763028894
  C        -2.6330970652       13.1036086289       20.2020941498
  H        -3.5903026296       14.1006772292       18.6428167734
  H        -2.0804865383       14.9495935393       19.2034733998
  C        -2.6345596330       13.5856685225       21.6560335423
  H        -3.5237130305       12.4594026260       20.1597771568
  H        -1.7901403804       12.5047889067       20.0110466483
  C        -1.4652095560       13.1088612280       22.4603685058
  H        -3.5453333940       13.1532513348       22.0502080976
  H        -2.8217117756       14.6228815350       21.8783327583
  C        -0.1205049715       14.0256386640       22.6546147975
  H        -1.7903125090       12.9607923473       23.4938879611
  H        -1.1709438890       12.1173575542       22.0205710166
  C         1.0239030598       13.4224887611       23.4934905863
  H         0.3291924490       14.2088087350       21.6605329401
  H        -0.3619662410       14.9967682503       23.1157230862
  C         1.4630930451       12.1219342692       22.7791140081
  C         0.5615676996       12.6426834307       24.6507066403
  C         2.2438052201       14.3108320356       23.6760635519
  C         1.1256471598       11.0114033524       23.4815114164
  C         1.9224776307       11.8052494205       21.4827030932
  C         0.5571463343       11.3094075207       24.6779036776
  C         0.1142383429       13.3097370346       25.7625899680
  H         2.5589699901       14.8227860687       22.7590822027
  H         2.0928053589       15.1310287724       24.3883433265
  C         3.4143433410       13.5649219232       24.2669272210
  S         1.5256395775        9.5489062789       22.6493583771
  C         2.0659281755       10.4466749721       21.2944214062
  H         1.9690914438       12.5793286661       20.7448019561
  C         0.0884042535       10.6156283782       25.7544185292
  H         0.2203956538       14.3684728981       25.7031230700
  C        -0.3098392256       12.6300955757       26.8705013344
  H         3.7013857587       12.7039926905       23.7751290114
  H         3.1102171699       13.1779361366       25.2814831982
  C         4.7279298335       14.3850120876       24.4244985384
  C         2.5237507769        9.7512907327       20.0516826061
  C        -0.2840975291       11.2874483463       26.9432965773
  H         0.1460665617        9.5524631631       25.7059914384
  C        -0.6995065109       12.9432329882       28.1205161702
  H         5.4178453809       13.8068156616       25.0184267214
  H         4.4885742230       15.3369258909       24.9244822798
  C         5.4253067841       14.7620690511       23.0666107286
  C         2.6896221852        8.3572827813       19.8322935041
  C         2.8603594019       10.6043260146       18.9129325448
  C        -0.6885534104       10.5441022395       28.3113776806
  C        -0.9563450398       11.8485892607       29.0162220454
  S        -0.8736588922       14.4186265206       28.9964045058
  H         6.0713767321       15.6356434712       23.0153603648
  H         4.6618795259       14.9384361611       22.3573926768
  C         6.2184910215       13.5937738761       22.5147439675
  N         2.5263542041        7.3394960858       20.7630462798
  C         2.9458982336        7.8267375527       18.5678943559
  C         3.2727264524       10.0472489145       17.7065146394
  H         2.7346374953       11.6617134597       19.0047470915
  C         0.4285308333        9.5830988827       28.8146781443
  C        -1.9789620514        9.7270791542       28.1871484109
  C        -1.0894268291       12.2603486835       30.3860513014
  C        -1.2008145194       13.6102197980       30.4817061065
  H         6.9115529191       13.2836646992       23.2686283894
  H         5.5818395025       12.7545324397       22.3408490305
  C         7.0201162953       13.9224553603       21.2161399068
  S         2.4140472194        5.9418659132       19.9281843642
  N         2.8536044358        6.4036703292       18.4824980562
  C         3.2658574834        8.5343083708       17.4532557257
  H         3.3793605900       10.7069806796       16.8340251699
  H         0.5317760876        8.8600154349       28.0385379044
  H         0.1732547979        9.0439788883       29.6905450816
  C         1.7727367322       10.3603476618       29.1430595316
  H        -1.9359588601        9.0832898579       27.3394776005
  H        -2.1233854985        9.0217017099       29.0395411800
  C        -3.2498911483       10.5590268463       27.9578357282
  H        -1.1030621976       11.5016651626       31.1546957018
  C        -1.3769803261       14.2955740148       31.7966258485
  H         7.6045441005       13.0448145930       21.0726604343
  H         7.7701493723       14.7311628007       21.2188108144
  C         6.2530877982       14.0525479414       19.8742795366
  C         3.5974211764        7.9321049261       16.1813432440
  H         2.4021455067       10.4860198377       28.2861599050
  H         1.3568307860       11.3326823840       29.4250128406
  C         2.4657021035        9.8271157106       30.3660370723
  H        -3.0739958358       10.9357885512       27.0090454825
  H        -3.4113304252       11.3433442887       28.6905230247
  C        -4.4581941815        9.6992508411       27.6872694489
  C        -1.5579949075       15.7194300441       31.9604454625
  C        -1.4423821308       13.4955051442       33.0929162812
  H         6.0528331249       15.1152507825       19.8039443877
  H         6.8268107460       13.8260910859       18.9471723665
  C         4.9145540415       13.4687750113       19.7562602983
  H         3.4409687376        6.8951592380       16.1248692978
  C         3.9501532414        8.4216265352       14.9615157348
  H         2.5835140617        8.7766315321       30.1252993477
  H         1.8920545713        9.7249080845       31.2553388284
  C         3.9136887861       10.2934945284       30.5933359766
  H        -4.1710561468        8.9796549776       26.8925652585
  H        -4.7151153040        9.0532099981       28.5833150182
  C        -5.6825583330       10.5808586305       27.1799673668
  N        -1.3129891395       16.6541397041       30.9121094242
  C        -1.8349574879       16.3184555821       33.1782056619
  C        -1.7666106193       14.1517382446       34.2567076862
  H        -1.3062988392       12.3884610349       33.0565715446
  H         4.2003253396       13.6773068683       20.5562930628
  H         4.4011146298       13.9142961180       18.9311314830
  H         4.9330220249       12.3790183187       19.4430135661
  S         4.4113492095       10.0516844904       14.5009191689
  C         3.9029898206        7.4834070428       13.8174922787
  H         4.0894666959       10.8898485741       29.7293116984
  H         4.1461013054       11.0290442596       31.4006430403
  C         5.0088220026        9.1404017345       30.5197777627
  H        -5.4163081862       11.4981452421       26.6755052443
  H        -6.1771182565       11.0031993881       28.0413894331
  C        -6.5571774720        9.8333062821       26.2036447363
  S        -1.4928032139       18.1456431838       31.5785730260
  N        -1.9385061171       17.7039889603       33.1101783690
  C        -2.0354511083       15.5931362501       34.4054806191
  H        -1.8232715021       13.5246654829       35.1289935950
  C         4.5680496227        9.4049287957       12.8766973604
  N         4.3177816378        8.0889703196       12.6892543243
  O         3.5889342506        6.2995385675       13.9393597787
  H         5.9733307223        9.5537320317       30.3985895522
  H         4.9721408403        8.7361552773       29.5114522536
  C         4.9281994193        8.0182996235       31.5321053548
  H        -5.8251002696        9.4814468627       25.4461065449
  H        -6.9367227425        8.9606009360       26.7504994489
  C        -7.4408762030       10.7243802285       25.4505749689
  C        -2.3677380706       16.2662084998       35.5915689807
  S         4.9931010522       10.4228916707       11.5529329726
  C         4.3625942368        7.3109503444       11.4291173710
  H         5.1026279765        8.4271464422       32.4994959509
  H         3.9451421784        7.5722125206       31.6727224269
  C         5.9565413391        6.9201410964       31.1696361834
  H        -7.0076882557       11.0663290805       24.5087534355
  H        -7.6442698278       11.6025776049       26.0311955675
  C        -8.8290741069       10.0309407907       25.2771939232
  H        -1.9830585051       17.2356543305       35.6415226991
  C        -3.0004131103       15.9061572884       36.7678184970
  H         4.9783101289        7.8639043270       10.7576664107
  H         4.7972326416        6.2868601272       11.4846246283
  C         2.9879420144        7.1966061518       10.7262316551
  H         6.9861835218        7.2938674636       31.1767496636
  H         5.7931762607        6.4188620892       30.2645458231
  C         5.9121143359        5.7121947278       32.0982072153
  H        -9.5339736222       10.7909949370       24.9223352899
  H        -8.7742635221        9.2077057479       24.5999063801
  C        -9.4012455621        9.7760214052       26.6363720620
  S        -3.5980235356       14.3828408528       37.1831452953
  C        -3.1026727477       16.9703720776       37.8509366541
  H         2.0601239547        7.3709500479       11.3355650824
  H         2.8587134911        8.0591840476       10.0193110768
  H         2.9177579588        6.1872792136       10.1926221259
  H         5.9724254628        6.0649317937       33.1061399791
  H         6.8150824344        5.1048836873       31.9617780995
  H         4.9978034100        5.0790874041       31.9668664641
  H       -10.4750839360        9.5974839380       26.5151166490
  H        -9.1491143420       10.5433699192       27.3809146930
  H        -9.1185276706        8.8662801239       27.0656239624
  C        -3.8757137048       15.0758749250       38.7299507396
  N        -3.6105371510       16.3627895356       38.9540454906
  O        -2.7656188883       18.1662753710       37.7731311630
  S        -4.3722305136       14.1589793462       40.1021033435
  C        -3.7405348283       17.0686351836       40.2364204915
  H        -3.9438361205       18.1292142028       40.1591133103
  H        -4.6199939054       16.7308813432       40.8037670889
  C        -2.5357655961       16.9726803134       41.0596392815
  H        -1.9190822527       17.9189829463       40.9985686824
  H        -2.7701864043       16.8237553346       42.1166006184
  H        -1.8033234823       16.1979333020       40.7405015418
