352
 i =    80900, time =    80900.000, E =        25.5467463192
  H        10.6459155350        7.1275643997       31.7108807895
  C        11.6822586378        6.8227647100       31.8824626519
  H        12.3314045635        7.6661833065       32.0951998163
  C        12.0025837586        6.2190950145       30.5517842340
  C        11.5756937856        5.8170764041       33.0541579039
  C        11.0370126567        5.2828288320       29.8900047423
  H        12.3891382905        6.9760601787       29.8532158136
  H        12.9573973091        5.6690566817       30.7221678013
  H        11.2429748213        6.1838636867       34.0438083911
  H        10.8750328418        5.0411987074       32.8988197738
  H        12.5336425217        5.3245256417       33.1591571564
  C        10.2260998449        6.1504050038       28.9439068270
  H        10.2449506191        4.8801838587       30.5362007748
  H        11.5290220848        4.4462666243       29.3941348073
  C        10.6602877606        6.1113896365       27.5021534070
  H         9.1825315487        5.7695933779       29.0039199423
  H        10.0888806436        7.1815672346       29.2723158146
  C         9.8682190837        5.2188308202       26.5286963262
  H        11.6258950321        5.5354951803       27.5920259057
  H        10.9280444265        7.0018668158       27.0009579974
  C         8.6453813352        6.0270726507       26.0664882762
  H        10.4622779097        5.0284123253       25.6727950782
  H         9.5732260088        4.3357736782       26.9544704275
  C         7.5845725318        5.1913073089       25.3125130476
  H         8.2130845710        6.5340559583       26.9065905290
  H         8.8302307091        6.8248360100       25.2943274234
  C         7.2675826011        3.8001791735       26.0064223417
  C         8.0032974513        4.4366279972       24.0849787531
  C         6.3332040944        6.0568452883       24.9238682058
  C         7.4447964482        2.6428321807       25.2365571652
  C         6.9280332410        3.4381293405       27.3280540866
  C         7.9162701530        3.0880841023       23.9789169008
  C         8.4444236511        5.1761772043       22.9811114401
  H         6.0540758110        5.8942241584       23.8771020991
  H         6.6268467042        7.0756995434       25.0112250677
  C         5.0759672880        5.5336602313       25.6458520687
  S         7.1408366686        1.1418266319       26.0958999658
  C         6.6857703189        2.0706089662       27.4522181017
  H         6.7955779732        4.1482644329       28.1368275623
  C         8.3232136954        2.4945097372       22.8140153690
  H         8.3334873180        6.2164666883       22.9554504453
  C         8.8429645303        4.5305976945       21.8411263812
  H         4.8179330020        4.5084320618       25.4040618386
  H         5.2321067999        5.6621404445       26.7299144351
  C         3.7685627807        6.2575180175       25.2400578184
  C         6.0728065214        1.4414825797       28.7026031168
  C         8.7834490863        3.2066230740       21.7062976372
  H         8.3563052694        1.4508499800       22.7576429876
  C         9.2919873548        4.8790435466       20.5528461966
  H         3.2588526487        5.5403964452       24.7461521732
  H         3.9295107069        7.0334439094       24.4384438971
  C         3.0584479397        6.7362632347       26.4670490878
  C         6.1465941907        0.0695290159       29.0063174428
  C         5.5623319503        2.2894269713       29.7974675344
  C         9.0463481861        2.4265880605       20.4322714089
  C         9.4308921418        3.7234939732       19.7267022047
  S         9.5672997127        6.3443414577       19.7411896347
  H         2.1329177250        7.3287335495       26.0913817336
  H         3.6357213287        7.3981074602       27.1063507164
  C         2.5536856717        5.5822106712       27.3467502667
  N         6.5412539779       -0.9096861188       28.1086591107
  C         5.8598229861       -0.4872716581       30.2564984401
  C         5.1947359053        1.7710746329       31.1038539169
  H         5.5419145060        3.3421422386       29.5925821092
  C         7.8255249237        1.7997646233       19.7306741094
  C        10.2614953070        1.4610491861       20.4184421809
  C         9.8639786166        4.0886060671       18.4293739138
  C         9.9449537178        5.4632471245       18.2610109647
  H         2.9421068761        4.6757184458       26.8778265612
  H         3.0826921220        5.7697066354       28.2599496150
  C         0.9467263504        5.6839435611       27.6078704923
  S         6.6707887618       -2.3551051962       28.8716685194
  N         6.0760996797       -1.8854627378       30.3002738904
  C         5.4480249799        0.3063334843       31.3988807352
  H         4.7173014052        2.4584098751       31.8079920695
  H         7.4652611377        0.8249107457       20.1624454405
  H         8.2792791599        1.5798346014       18.8182313057
  C         6.5424282339        2.7517425871       19.6653483669
  H        10.3664111790        0.8595118668       19.5005163025
  H        10.3170542724        0.7604262317       21.1730664734
  C        11.6233861647        2.1678643340       20.7164822916
  H        10.0487696629        3.3208891988       17.6948646171
  C        10.2512613261        6.1206304206       16.9351319544
  H         0.5471683589        4.9136133868       26.9184374196
  H         0.5106869786        6.6720203527       27.3039976114
  C         0.5936007171        5.2972486295       29.0623195893
  C         5.3063989020       -0.2768003562       32.6763613839
  H         6.6747474786        3.6720061098       19.0466783015
  H         6.3664540025        3.1261107934       20.6673643753
  C         5.2366282147        2.0210831866       19.2872862135
  H        11.3840324520        2.7643088252       21.5934942187
  H        12.0132480254        2.8034679421       19.9062233528
  C        12.7666017760        1.3005346750       21.1517074646
  C        10.3246526045        7.5303201325       16.7437158475
  C        10.4795394334        5.3680135271       15.6885513026
  H        -0.4288367617        4.7875217050       28.9251653671
  H         1.2985950709        4.5309994082       29.2773431192
  C         0.6365500498        6.2835718500       30.2185549351
  H         5.5580488618       -1.2815466924       32.6855071713
  C         5.0411134943        0.1942734502       33.9486033513
  H         4.3198596150        2.6287436897       19.3546780113
  H         5.1311923575        1.3567015331       20.1307460362
  C         5.1812374075        1.1383312819       18.0157058931
  H        12.5170006067        0.7187199110       22.0176440844
  H        13.1570306927        0.6783905004       20.3578414341
  C        13.8672921741        2.2196687658       21.7170354295
  N        10.1376854601        8.4913841038       17.7702805451
  C        10.6637346026        8.1517641241       15.6033613248
  C        10.7356533922        6.0050137935       14.4818669570
  H        10.3657867146        4.3183197788       15.6642835625
  H        -0.1506971529        7.0491794775       30.1651631052
  H         0.3785045884        5.8414728869       31.2157716151
  H         1.5721492181        6.7944646811       30.2671133076
  S         4.5252296250        1.8288710263       34.3182116746
  C         4.9801968106       -0.7644483395       35.0705035240
  H         5.6554709964        1.5539901655       17.2358868037
  H         5.6638258947        0.2136953987       18.4055664959
  C         3.7856853921        0.8461047881       17.6020137654
  H        13.4079499506        2.7612331355       22.5532711070
  H        14.1923434653        2.8880817722       20.8941826795
  C        14.9685351997        1.4983561103       22.4268497448
  S        10.4052537385        9.9857480247       17.1650479715
  N        10.7745254943        9.5562446653       15.6831568449
  C        10.9105710888        7.4975376473       14.3973586551
  H        10.8090285135        5.4340948775       13.5419367308
  C         4.2535722704        1.1930867762       35.9596202719
  N         4.5908081388       -0.1438089401       36.1885362725
  O         5.4382857931       -1.8814481120       34.9847224632
  H         3.6362202388        0.4364760131       16.5693010783
  H         3.3663670405        1.8736579144       17.4980600947
  C         3.1532446688       -0.1377165565       18.5413419665
  H        14.5853370142        0.8585885695       23.1656014413
  H        15.5494789708        0.9425395081       21.7218055758
  C        15.8574871641        2.5447844017       23.0812397557
  C        11.1540849807        8.2663800640       13.2154290290
  S         3.8089864382        2.1657030704       37.3102650598
  C         4.6281110291       -0.8174483417       37.4689927263
  H         3.8592665772       -0.5131288077       19.2161574593
  H         2.4361703465        0.4357061105       19.0689010606
  C         2.3160226373       -1.2648603181       17.8739181256
  H        15.3302642865        3.1976650253       23.7824935235
  H        16.2892419832        3.1438647244       22.2372217227
  C        17.0837402905        1.9072463251       23.7983375988
  H        10.6682824650        9.2620196299       13.2136055523
  C        11.6861275384        8.0003035511       12.0123229440
  H         4.1263932534       -0.2021844416       38.1605902267
  H         4.1132863007       -1.7277424608       37.4201097983
  C         6.0174147668       -1.1748734219       37.9943338006
  H         1.4660811484       -0.8605880098       17.3046106319
  H         1.9275753381       -1.8081540104       18.6995492833
  C         3.1852438638       -2.2053318372       17.0119464575
  H        17.4208239602        2.6338681644       24.5160573998
  H        16.7745337804        1.0202986510       24.4008881758
  C        18.2217098697        1.5091799925       22.8523065505
  S        12.3554348286        6.4254028463       11.4935152907
  C        11.7491312794        9.1214895595       11.0246692427
  H         6.8533914153       -0.8859552301       37.2571616518
  H         6.2695027135       -0.6585958499       38.9073559771
  H         5.9951760554       -2.2047149512       38.0036771509
  H         4.1410461298       -1.7766197743       16.6985769443
  H         2.6339846743       -2.4990994606       16.1562826151
  H         3.2310789341       -3.2118080521       17.4683424414
  H        18.5656008901        2.3989520054       22.2492538585
  H        17.9473702347        0.6807584872       22.2245103127
  H        19.0698582104        1.1662595515       23.3792076722
  C        12.6770683876        7.3269687589       10.0190467740
  N        12.4318315386        8.6744839554        9.9780793709
  O        11.4261959574       10.2296077998       11.1987985644
  S        13.4159510248        6.5416875162        8.6285391583
  C        12.6849511777        9.5418229999        8.8558232274
  H        13.0411830664       10.4782373245        9.3000151431
  H        13.4318025955        9.1228582846        8.2361120575
  C        11.4406601276        9.6991765456        7.9699608362
  H        10.8710220468       10.6089019991        8.2498783235
  H        11.8495118678        9.7868397798        6.9805305337
  H        10.7583018011        8.8604917646        8.0340112234
  H        -0.7983964564       14.2056945843       16.7894314790
  C        -1.8421433475       14.4116603608       16.5496884809
  H        -1.9327437712       15.5283544683       16.4797904427
  C        -2.6349853663       13.7091549086       17.6422292070
  C        -2.1130943553       13.7724457253       15.2078033584
  C        -2.4566985607       14.3042732591       19.0745321018
  H        -3.6355756026       13.7007374296       17.2728484810
  H        -2.4313356619       12.6507555571       17.6266492347
  H        -1.9879125688       12.7237056196       15.3742510217
  H        -3.1483493772       13.7373425676       14.8713581510
  H        -1.4464825980       13.9577054075       14.4071592551
  C        -2.0416638223       13.2228998535       20.1253912563
  H        -3.3048085167       14.9008849536       19.4383949063
  H        -1.7123044707       15.0836812904       18.9844688132
  C        -2.3717385903       13.7081275354       21.5124818692
  H        -2.5581986480       12.2553077326       20.0019438508
  H        -0.9575397947       13.1410501362       19.9308351845
  C        -1.2588944046       13.1219612003       22.4275990602
  H        -3.2883242756       13.2065035962       21.9197401002
  H        -2.3833380818       14.7757594645       21.6812590252
  C         0.1141290011       13.7780308722       22.3327599877
  H        -1.5149219564       13.0282395667       23.5093408806
  H        -1.1519497218       12.1411207200       22.0487608838
  C         1.2512125757       13.0523211818       23.1092657474
  H         0.3300621170       13.8936251093       21.3017116158
  H         0.0192021225       14.8007589669       22.8333912212
  C         1.5797566649       11.6338889429       22.4598270382
  C         0.8907962376       12.3780098309       24.3367952307
  C         2.4885836946       13.9358162204       23.2869965999
  C         1.4038434697       10.5927509589       23.3078020059
  C         2.0735662042       11.2630511539       21.2006680842
  C         0.9512366668       11.0744149992       24.5342255085
  C         0.4370632580       13.0878435464       25.4494382068
  H         2.7514162137       14.4932884430       22.4038481338
  H         2.2208971104       14.7355588303       24.0105739891
  C         3.7317134614       13.2599220252       23.8253084486
  S         1.6495353513        9.0626903068       22.5365297460
  C         2.1897668813        9.9289656371       21.0897106825
  H         2.2114833037       12.0655830209       20.4980616516
  C         0.5812057100       10.4334341433       25.6718535798
  H         0.3253380926       14.1519952194       25.3526248347
  C         0.1035798336       12.5109789247       26.6509681363
  H         3.9102293459       12.4068624704       23.2198694328
  H         3.4629219357       12.8157982730       24.7109369778
  C         4.9602574698       14.1764901540       24.0678677993
  C         2.6203971034        9.2537292425       19.8435245355
  C         0.1297443918       11.1584121974       26.8146115393
  H         0.5471144566        9.3572173639       25.7915779356
  C        -0.2713066952       12.9275092154       27.8840718295
  H         5.6636772764       13.6275691957       24.7047549198
  H         4.5972785775       14.9706295339       24.6717946498
  C         5.7824626126       14.5721539918       22.7914630526
  C         2.5834190046        7.8655073154       19.5561406730
  C         3.1222035625       10.1082090276       18.7473223755
  C        -0.2211733136       10.3998947891       28.0583233537
  C        -0.5515670733       11.8286068274       28.7376453838
  S        -0.6717127762       14.4740501375       28.6529499853
  H         6.3610057789       15.4362381166       23.2147440039
  H         5.2068205933       15.0547195951       21.9706406717
  C         6.6561410443       13.3078149579       22.3302041502
  N         2.1072242811        6.8577441564       20.4445215215
  C         3.0282793868        7.3177844768       18.3864471444
  C         3.4929762556        9.5648710500       17.5160957313
  H         3.2552805494       11.1746338158       18.8857577868
  C         1.0249427763        9.6821937524       28.6031223156
  C        -1.5453400127        9.5151865190       27.9760881351
  C        -0.9665496792       12.3461873758       29.9709599564
  C        -1.0853752168       13.6948665812       30.0740103425
  H         7.2424880459       13.1272917786       23.2090689643
  H         6.0088887188       12.3952439245       22.2892804525
  C         7.5855113484       13.4414724907       21.1193398728
  S         2.1206077695        5.4529883035       19.6382127886
  N         2.7575623361        5.9331159829       18.2437681101
  C         3.4403781263        8.0922589366       17.2955608908
  H         3.7183022890       10.3515833058       16.8185795911
  H         1.0888742074        8.6879419117       28.0673537235
  H         0.8421888344        9.3782213981       29.6614296537
  C         2.3355783944       10.4495882958       28.6931127645
  H        -1.4573448655        8.7697929975       27.1848541352
  H        -1.7604997321        9.0893579093       28.9283319998
  C        -2.6921066585       10.3495008983       27.4486460794
  H        -1.2104500817       11.5909114191       30.7835331482
  C        -1.4028865842       14.4582252383       31.3756793878
  H         8.1185706791       12.5145569564       20.8359967072
  H         8.3304845470       14.2846492183       21.3754733336
  C         6.8555249130       13.7644168071       19.7693967015
  C         3.7468260534        7.4244498240       16.0589037936
  H         2.6242971423       10.7743785326       27.7319875518
  H         2.2952211655       11.3829672041       29.2462829718
  C         3.4630861018        9.6080823549       29.3568568810
  H        -2.4585797265       10.8513726500       26.4723159004
  H        -2.8788026007       11.2350569089       28.1014139088
  C        -4.0408881548        9.6908660207       27.2124257220
  C        -1.4075844162       15.8964928337       31.4416816126
  C        -1.5524396722       13.7362707555       32.6833223664
  H         6.1518306311       13.0072612271       19.4887402838
  H         6.1909486957       14.6442315414       19.9709200811
  C         7.8944295168       14.1430706720       18.6798465035
  H         3.6438638884        6.3336300310       16.1007729556
  C         3.9855466031        7.8540843049       14.8361056761
  H         3.6166938751        8.7562933020       28.7891449920
  H         3.1444208229        9.3354642292       30.3397007820
  C         4.8126475723       10.3766974622       29.6007803643
  H        -3.9735982795        9.0583997073       26.3092848708
  H        -4.3350811560        9.0996443629       28.0401381617
  C        -5.1556733451       10.7614042973       27.0143199655
  N        -1.0750954811       16.8018588444       30.4105082638
  C        -1.5429156539       16.5484109262       32.6344173919
  C        -1.7823922898       14.4112078637       33.8460113523
  H        -1.5959387834       12.6452749872       32.6612663388
  H         8.0232752892       13.0850269518       18.3057835664
  H         7.3731414219       14.6917949649       17.9301550669
  H         8.8179014515       14.6524030917       19.0084782032
  S         4.0258896939        9.5202811527       14.3189902022
  C         4.0827427185        6.8554020981       13.7778823318
  H         5.0894887796       10.9147814865       28.7179075368
  H         4.4774532787       11.1961961500       30.2785643261
  C         5.9258252191        9.5878029700       30.3096642668
  H        -4.8140629084       11.4408401448       26.1865493639
  H        -5.3627045820       11.4107011123       27.8949616404
  C        -6.3722785484       10.1281342925       26.4494332648
  S        -1.1825985666       18.3109211992       30.9721557104
  N        -1.6148524386       17.9163115963       32.5223219144
  C        -1.8146821198       15.8755010864       33.8406556872
  H        -1.9583465271       13.8501033230       34.7268886420
  C         4.2896170722        8.8571993751       12.7173907122
  N         4.4042581296        7.5491073593       12.5995233738
  O         4.1737227058        5.6216767010       13.9286318657
  H         5.5036028229        9.2059816878       31.2679849497
  H         6.7548860713       10.2071155242       30.5616579105
  C         6.5954198782        8.4580128779       29.4243400311
  H        -6.0416396396        9.3555108484       25.8186180243
  H        -6.9387445391        9.6481985386       27.1625099018
  C        -7.1094622793       11.0889660140       25.5072170383
  C        -2.1548086894       16.6568553213       35.0188244679
  S         4.5933062101        9.8685202950       11.2243402920
  C         4.5642013351        6.8821063751       11.3122597000
  H         6.5072434978        8.6014277190       28.3296984650
  H         7.6498863627        8.6479709037       29.4969390085
  C         6.2584438004        7.0163296894       29.8345027639
  H        -6.4319882111       11.3052370090       24.6381059984
  H        -7.1489579172       12.0592635330       26.0449056892
  C        -8.4568169904       10.7223117734       25.0211439861
  H        -2.0669558892       17.7395343805       34.8977228103
  C        -2.6403646576       16.2372463484       36.2319120121
  H         5.2935815757        7.4288061985       10.7440150869
  H         5.0485552890        5.9563581378       11.3897106740
  C         3.1839157376        6.7511997146       10.7040057296
  H         6.4167671317        6.2803998643       28.9869518290
  H         5.2096770816        6.9800420400       29.9815524231
  C         7.1022595278        6.6074719206       31.0524175147
  H        -8.8055860529       11.4805024617       24.3534631618
  H        -8.3923312471        9.9366093511       24.3156645043
  C        -9.5074631835       10.4145799281       26.0755415470
  S        -3.1940260146       14.7074880156       36.6544556250
  C        -2.7182356535       17.2637625838       37.2823759250
  H         2.5154166550        6.0610042063       11.2352624181
  H         2.6946468177        7.7026964915       10.5934419131
  H         3.2715466480        6.3309296205        9.7291312078
  H         8.1017502408        6.4487836877       30.6393123146
  H         6.6091974002        5.6620578581       31.4361699952
  H         7.2836697578        7.3464883467       31.8237886009
  H       -10.4825222881       10.0514058769       25.7514028961
  H        -9.7421480560       11.2233844977       26.6781378137
  H        -9.1915749993        9.7287461846       26.8644353703
  C        -3.4900790058       15.4237965878       38.2927976717
  N        -3.3424249044       16.7692151962       38.3566169813
  O        -2.4252722921       18.4591333689       37.0705757716
  S        -4.4535140354       14.6424315244       39.5601874237
  C        -3.6658430613       17.6094650077       39.5296996199
  H        -3.7332406897       18.6199623553       39.1622544353
  H        -4.5315616438       17.2387327539       40.0198416563
  C        -2.5493201480       17.4624461215       40.6024035625
  H        -2.3567548158       18.4061152683       41.1443715377
  H        -2.7147307510       16.7423872841       41.4841958005
  H        -1.6152191585       17.1802838069       40.1517221650
