352
 i =    56700, time =    56700.000, E =        25.2201930100
  H        12.6931182180        5.1001369009       32.3827348849
  C        11.7576483535        5.6451213836       32.3192056147
  H        11.0798536051        4.8481113692       32.0447783567
  C        11.6226443955        6.6838514903       31.1991128141
  C        11.3509399058        6.2175214025       33.6719916482
  C        11.8641925929        5.9978181231       29.8763046641
  H        10.6681624213        7.1919697836       31.1036435570
  H        12.3715606471        7.3884442769       31.4167778875
  H        10.5995094285        6.9728988144       33.7082870100
  H        11.0755899300        5.3834102312       34.3150585132
  H        12.1779414796        6.5588002390       34.2504449573
  C        10.6448214729        6.0782383937       28.9310196706
  H        12.0952509544        4.9745393159       30.1088743497
  H        12.6407743195        6.4662976010       29.3298380698
  C        10.9911734604        5.4189435988       27.5066151374
  H         9.9126416366        5.5354521547       29.4812118511
  H        10.1638034673        7.0092429571       28.8723434876
  C         9.8073419961        4.7610662704       26.7993515988
  H        11.7919105759        4.6718837753       27.4592167485
  H        11.2925581976        6.3433211697       26.9784052518
  C         8.5666088403        5.5865826123       26.5225016524
  H        10.2174471794        4.3125703542       25.8679846180
  H         9.5340569655        3.9104911444       27.4319084553
  C         7.4337906082        4.8814392081       25.6471042065
  H         8.2222156366        5.8390934131       27.4837108686
  H         8.8116651738        6.5384665680       25.9950051627
  C         6.9453942312        3.5177441720       26.2641835271
  C         7.8256684167        4.1087693064       24.3965762583
  C         6.2444757447        5.8089807457       25.4500038167
  C         7.2072604998        2.4135926378       25.4811739198
  C         6.3920685865        3.2078435647       27.5271468169
  C         7.6513969189        2.7438270476       24.2433834045
  C         8.3132677812        4.7347570748       23.2784359964
  H         6.4979710401        6.5890035729       24.7342950577
  H         5.8856250472        6.1749060820       26.3845744800
  C         4.9945528624        5.0809797865       24.9582918240
  S         6.9375108992        0.9215817845       26.3726058143
  C         6.3661558769        1.8472251523       27.7079782705
  H         6.1133640804        3.9592947269       28.2654320530
  C         7.9912253190        2.1379418207       23.0142282873
  H         8.3208386187        5.7955170741       23.2735232321
  C         8.5542227107        4.2033755697       22.0405231315
  H         5.3735289844        4.5825928811       24.0548252582
  H         4.7573002327        4.2335512253       25.5558643536
  C         3.7281588440        5.9344838646       24.6950756995
  C         5.9017296766        1.1655890368       28.9613790994
  C         8.4305851093        2.8417901579       21.8854344901
  H         7.9551175978        1.0962647100       22.9322946815
  C         8.9558119028        4.6231298599       20.7734054373
  H         3.1334735061        5.3942992538       23.9666464570
  H         4.0367854707        6.7756602181       24.1688813237
  C         2.8704532674        6.2585531567       25.9702336094
  C         6.0314256645       -0.2016667083       29.2496044452
  C         5.2434977058        1.9689754469       29.9971273864
  C         8.8252012970        2.1457803804       20.6212503048
  C         9.1340747629        3.5480178448       19.9322224896
  S         9.1278927901        6.1474545222       20.1197110052
  H         2.2136424587        7.1476081640       25.9437344762
  H         3.6808409042        6.3389604228       26.6952360842
  C         2.0308551092        5.0600213975       26.3692955707
  N         6.3314119571       -1.1518680952       28.2577136639
  C         5.8713699010       -0.7373751991       30.4943805858
  C         5.0001223763        1.4513337004       31.2672448969
  H         4.8348912627        2.9690488907       29.8847737229
  C         7.6933278615        1.3174412235       19.8978145319
  C        10.0881673531        1.3501167539       20.7736471746
  C         9.5575465018        4.0025652178       18.6653950260
  C         9.4237811929        5.3632934475       18.6071736067
  H         1.2796418767        5.0516164834       25.6418731814
  H         2.6000666020        4.1645348557       26.3155963789
  C         1.3970775666        5.1146559747       27.7256458281
  S         6.3718928339       -2.6340030708       29.0187973211
  N         6.1108867767       -2.0850729375       30.5504198431
  C         5.2950195678        0.0158491846       31.5683433993
  H         4.5378149278        2.1069790761       32.0333860682
  H         7.7065452742        0.3834764446       20.3300242496
  H         8.1390346439        1.1959585474       18.9124430938
  C         6.2948049219        1.9240688983       19.6918308370
  H        10.2545593540        0.8066385607       19.8119908753
  H         9.9068950512        0.5899864221       21.4693727566
  C        11.3955016477        2.2076496570       21.0982999198
  H         9.6521021934        3.3243147749       17.8284491443
  C         9.6949557747        6.1317290131       17.3685263803
  H         0.5886553140        4.3907024139       27.7731281008
  H         0.9002874499        6.1131606596       27.7251625843
  C         2.4393169535        4.9005362712       28.7653226924
  C         5.1492238504       -0.6264279466       32.7589665045
  H         6.4817537210        2.9823674494       19.3414104566
  H         5.6679054663        1.9052183995       20.5318913795
  C         5.4697599457        1.2701086668       18.6287764930
  H        11.2184435255        2.6684821619       22.0552685824
  H        11.6004582751        3.0490304728       20.3860509968
  C        12.5041723426        1.1081528501       21.1885088804
  C         9.7351594569        7.5505486718       17.1972075918
  C        10.0715139709        5.3830648509       16.1780811260
  H         2.7685996300        3.9069451325       28.6520201949
  H         3.1494596937        5.6839072267       28.6381441795
  C         1.7394865400        5.1814577126       30.0578828893
  H         5.7724137398       -1.5083031378       32.7291648347
  C         4.9087896858       -0.2634151033       34.0502515904
  H         5.2998626052        0.2305647798       18.8084123712
  H         6.0668724378        1.5006070556       17.7480517584
  C         4.1181750325        1.9508280706       18.2893627914
  H        12.2869471651        0.4063416621       21.9782378058
  H        12.6125743477        0.6473939490       20.2539243271
  C        13.9077470988        1.5541080118       21.4324122944
  N         9.4460235349        8.4639480152       18.2306526741
  C        10.1342788796        8.2053471649       16.0258622583
  C        10.5589814918        6.0486645250       15.0499732171
  H         9.8605707785        4.3039542899       16.0978595804
  H         0.9058650903        4.6075773017       30.3294330869
  H         2.5772354560        5.1631328987       30.7701043437
  H         1.4246089129        6.2152171001       30.1220459524
  S         4.3989927511        1.2318136839       34.6383096462
  C         4.7919601983       -1.3988154648       34.9801512577
  H         4.1373872259        2.9675585887       18.8613299057
  H         4.0628235586        2.2148273355       17.1895714831
  C         2.8919047654        1.1235563374       18.5333296481
  H        14.1544751122        2.4201345746       20.7557269920
  H        14.6507356775        0.7493353593       21.2269420562
  C        14.2687281607        2.0731518216       22.8631368492
  S         9.6515408935        9.9898555669       17.6478154844
  N        10.0114256195        9.6110136402       16.1529064765
  C        10.5594317985        7.5475166755       14.8675616800
  H        10.8211071250        5.4328228429       14.1949739467
  C         4.3698561193        0.4514311098       36.2166380230
  N         4.5336518540       -0.9396761745       36.2010961766
  O         4.9497649547       -2.5338098313       34.6571192642
  H         2.0477657562        1.7976658672       18.8461783084
  H         3.0880768018        0.3709455965       19.3275590519
  C         2.4095553688        0.4721334003       17.2501016533
  H        13.6836617346        2.9588290785       23.0446653264
  H        14.0128549032        1.3611400038       23.6323367285
  C        15.6957530732        2.6096579874       22.8991581087
  C        10.9859588173        8.2276413660       13.7363998322
  S         4.1315747380        1.4175172645       37.6411017750
  C         4.6699854264       -1.7782738087       37.3891500083
  H         1.8174062623        1.2490065693       16.7161796993
  H         3.3054909539        0.2421789077       16.5552151178
  C         1.3772465539       -0.5950259628       17.5493871687
  H        15.6451833803        3.2861880640       23.7856780285
  H        15.9394417766        3.3094743183       22.1724963855
  C        16.9298973021        1.6700448257       22.8813959696
  H        10.7953086424        9.2894985137       13.8907671636
  C        11.3690159877        7.9320292364       12.4870943181
  H         4.0698653412       -1.2590926714       38.1508535952
  H         4.1569428354       -2.7345437965       37.3814659449
  C         6.1148601338       -1.9597971732       37.7931739509
  H         0.4651649520       -0.5790075826       17.0000192902
  H         1.0757531412       -0.5844935578       18.5900035001
  C         2.0346631072       -1.8505493813       17.2459802824
  H        16.8835131654        1.0088331140       23.7567647092
  H        16.8409671789        0.9051673616       22.1594865653
  C        18.3906667374        2.2579229283       22.7925948508
  S        11.7939472873        6.3491776078       11.8796070822
  C        11.4858449887        9.0250064008       11.5019517063
  H         6.5713834745       -2.0295968442       36.8014624623
  H         6.5410132810       -1.1643117934       38.4214369380
  H         6.2979220048       -2.9809886629       38.2744502873
  H         2.6218621170       -2.0696665514       18.1182718928
  H         2.6608862826       -1.8886251121       16.3776061173
  H         1.3298835358       -2.6770543859       17.1137546386
  H        18.5829172402        3.2011394305       22.2541539085
  H        18.9376504405        1.5552589129       22.2257565572
  H        18.8830995171        2.3117378578       23.8182161825
  C        12.1647710116        7.1308436860       10.3362175861
  N        12.0499864418        8.4924217071       10.3753128988
  O        11.1156278197       10.1592043234       11.7188953021
  S        12.9275550649        6.3188695092        8.9976793790
  C        12.2093057812        9.3933282224        9.1944502896
  H        12.2356114181       10.4921279612        9.5875107504
  H        13.2101817039        9.1742723216        8.7642349403
  C        11.0802420876        9.3621332493        8.1935230145
  H        11.2464327472        8.6147721993        7.3563406777
  H        10.0538009003        9.2640176924        8.6813191963
  H        11.0426545574       10.3266663650        7.6140543444
  H        -2.9465608595       12.8224923705       16.7365149600
  C        -2.4744131383       13.7323500242       16.8584943914
  H        -1.4561652106       13.4123432104       17.0047202376
  C        -2.8687961695       14.5103888787       18.1205483410
  C        -2.8068007389       14.4185597318       15.4971568332
  C        -3.1867058440       13.6330164855       19.3324327535
  H        -2.0743004415       15.2236445439       18.3598898736
  H        -3.8160650496       15.0862702585       17.9060876976
  H        -1.9655869837       14.7629529655       14.9752613823
  H        -3.4144884243       13.7920503564       14.8479906927
  H        -3.4067241724       15.2679613485       15.6415369702
  C        -1.8820813914       13.1727720615       19.9537852921
  H        -3.7331360190       12.7440395271       19.0953274569
  H        -3.7290939907       14.2284664179       19.9782757869
  C        -2.0877012272       13.0896512868       21.4787093215
  H        -1.6088659624       12.1689250557       19.6129157357
  H        -1.0637190704       13.8579014585       19.7171489227
  C        -0.8804493615       12.4072178678       22.1920252890
  H        -2.9588898268       12.5425837202       21.7032051385
  H        -2.2304903510       14.1041225077       21.9445654046
  C         0.3175797534       13.4277628697       22.5101528444
  H        -1.1176531954       11.9655907543       23.0980678843
  H        -0.6404835941       11.4942285002       21.7352333797
  C         1.4424039885       12.8143114826       23.3458099196
  H         0.8396817432       14.0094675124       21.6799071661
  H        -0.1896942306       14.1574045645       23.0877284166
  C         1.7468794881       11.4486734337       22.7277657775
  C         0.9359508373       12.1397434004       24.5853154643
  C         2.6522304304       13.7856697468       23.5086384834
  C         1.4170348703       10.3448710508       23.5308693339
  C         2.2638706383       11.0694998862       21.4555081901
  C         0.9272370727       10.7848151780       24.7426801326
  C         0.4484277224       12.8050379325       25.7164964026
  H         2.8687757592       14.1216995796       22.5713993378
  H         2.3561134069       14.6300252464       24.1949848634
  C         3.8919061217       13.0343947940       24.0701028276
  S         1.7326639223        8.8891847219       22.6955214399
  C         2.2006325501        9.6745688171       21.2034109163
  H         2.3793407937       11.8481886470       20.7569267928
  C         0.4726126690       10.1126282091       25.8658508898
  H         0.4939297296       13.8502505508       25.7006894757
  C         0.0008088628       12.1365678793       26.8846923229
  H         4.0980340416       12.1496312640       23.4205567807
  H         3.7116876058       12.5602712074       25.0176056080
  C         5.1680009766       13.9711608971       24.1454938197
  C         2.5149712099        9.0363558435       19.9480589777
  C        -0.0284630584       10.7888344483       26.9831545210
  H         0.3083195375        9.0599825896       25.9111412497
  C        -0.4198315459       12.5358875269       28.1141838588
  H         5.7740909019       13.5582188156       24.9942401688
  H         4.9061869448       14.9953615176       24.5119165485
  C         5.8620284782       14.1528770315       22.8045113961
  C         2.5016737956        7.6315189724       19.7261419811
  C         2.7882095946        9.9074044329       18.7888143137
  C        -0.3218362819       10.0884479795       28.2052499161
  C        -0.5669867693       11.4411063407       28.9801854261
  S        -0.6274239741       14.0652879490       28.8540038555
  H         6.4799438252       15.0414876815       22.9312879097
  H         5.1459614190       14.3697792500       21.9674829344
  C         6.8620341202       13.0073891627       22.4848111835
  N         2.3758044581        6.6016378917       20.7005863706
  C         2.8295735367        7.0895949358       18.5120936038
  C         3.0831029041        9.3780502998       17.5414678760
  H         2.7750400071       10.9337480606       18.8247946281
  C         0.8664526533        9.2536791600       28.7879569714
  C        -1.5537830999        9.2852152948       28.0103447798
  C        -1.1440371712       11.8607030674       30.1752067944
  C        -1.0110740516       13.2415590846       30.3499144797
  H         7.6508749205       12.9922456086       23.2332809391
  H         6.2666715526       12.0540155549       22.5813134852
  C         7.3998827454       12.9407240632       21.0493066793
  S         2.2852027906        5.1711728079       19.9233850900
  N         2.6840403943        5.6542755289       18.4290459893
  C         3.1291661790        7.9395164660       17.3481308307
  H         3.1937125794       10.1119825370       16.6962660264
  H         1.1893977540        8.5662212609       27.9821373138
  H         0.4655237266        8.6919522306       29.6233049493
  C         2.0307546709       10.1127441269       29.3833989724
  H        -1.2390389285        8.4015572547       27.3993716198
  H        -1.8739379627        8.7146518941       28.9185187088
  C        -2.7968031859        9.9457980272       27.3376733520
  H        -1.3057812019       11.0053132070       30.8332088186
  C        -1.3389444826       13.8829675171       31.6218244822
  H         7.8475689103       11.9705961521       21.0782141008
  H         8.2610105566       13.6481556363       20.9113800105
  C         6.2681503125       13.0879589722       20.0406453301
  C         3.3754013883        7.2506234382       16.0893345290
  H         2.6135644141       10.7464422156       28.6653628475
  H         1.5917305380       10.7634642942       30.1854917073
  C         2.9746506087        9.1579613483       30.0554598064
  H        -2.5249326833       10.3864244738       26.4225979049
  H        -2.9980608520       10.8633484480       27.9749554827
  C        -4.1049911434        9.1694114564       27.1330829291
  C        -1.4227830336       15.3165785399       31.7160946025
  C        -1.7079116923       13.1677208398       32.8598314209
  H         5.6407049334       12.2115382677       20.2340154152
  H         5.6656553398       14.0241994321       20.0715591701
  C         6.6847085205       12.9857332284       18.5690338508
  H         3.1899725230        6.1767673382       16.1020223703
  C         3.5953652509        7.7061083981       14.8268415189
  H         3.4477862833        8.6060907523       29.2921050612
  H         2.4397852801        8.4213852201       30.5435886383
  C         4.0778546117        9.8807970414       30.8515494105
  H        -4.0915498493        8.5365466202       26.2495128892
  H        -4.4072727736        8.6113880450       28.0196206062
  C        -5.2003408207       10.1479344582       26.7917327737
  N        -1.0830973219       16.2697265089       30.7452790332
  C        -1.8500021639       15.9444856751       32.8761970104
  C        -2.2075771659       13.8105667905       33.9870364076
  H        -1.5518510892       12.1238071297       32.8473896095
  H         5.7999780334       12.7674652695       17.9832246896
  H         7.0607036259       13.9836098397       18.3268559547
  H         7.5552987326       12.2507639726       18.3309736430
  S         3.8089644260        9.3639487010       14.3778653002
  C         3.7326335533        6.8103777200       13.6744605820
  H         4.3583008385       10.8469009790       30.4858523655
  H         3.7115250382       10.0398504139       31.8654108408
  C         5.4514350684        9.2160387788       30.8053518005
  H        -4.7743545690       10.8835822122       26.0311465525
  H        -5.3546876102       10.7723655835       27.6671350813
  C        -6.4418617874        9.4655453267       26.3066157047
  S        -1.3014752409       17.8272362610       31.3655159825
  N        -1.8724499993       17.3396271537       32.8162808655
  C        -2.3103817762       15.2525366067       34.0687776429
  H        -2.3649391442       13.1313828151       34.7961547356
  C         4.0355116866        8.8117689482       12.6845169727
  N         4.0541566438        7.5037714275       12.5559220000
  O         3.4523583037        5.6262581768       13.8194528956
  H         6.1410362166        9.6438518961       31.5207813766
  H         5.7993233573        9.4232966372       29.7405341305
  C         5.4394910577        7.7268129942       31.2329156020
  H        -6.2432305656        8.5978287620       25.7030068437
  H        -7.0304483805        9.2568841902       27.1417789281
  C        -7.2327761968       10.4398671207       25.3770679302
  C        -2.5635336304       15.9641768729       35.2560763629
  S         4.6631789558        9.8688896792       11.3973227484
  C         4.0485129188        6.8439174690       11.2806211643
  H         4.9288661024        7.5558100528       32.2038612460
  H         4.8798649084        7.1436238938       30.5417028338
  C         6.8076679441        7.1723732508       31.3494556260
  H        -6.5093264228       10.6597287866       24.5427154496
  H        -7.3218077180       11.3736905503       25.8520293304
  C        -8.4483490586        9.7028694817       24.9101280227
  H        -1.9765940944       16.8146552325       35.4256966734
  C        -3.1185025623       15.6631779184       36.4321682477
  H         4.6487841967        7.2420089654       10.4550356824
  H         4.4021417566        5.8548762135       11.5012662456
  C         2.6910237944        6.6178352045       10.7126856272
  H         6.9348134888        6.2057166297       31.7562897580
  H         7.3212579545        7.9501465161       31.9330769356
  C         7.6144188577        7.3603986029       30.0444039896
  H        -8.9359338226       10.1663072221       24.0427570718
  H        -8.2248043740        8.6698604701       24.6627962480
  C        -9.4949603824        9.7059041120       25.9672848603
  S        -3.8175713907       14.1583784133       36.8768605170
  C        -3.0561104901       16.7018494454       37.4759452438
  H         2.5635079182        5.5653928341       10.4133369055
  H         1.9643989062        6.7986661918       11.4811121805
  H         2.5340931201        7.2082819239        9.8182830003
  H         6.9933291981        7.4159729465       29.1275318525
  H         8.2478339403        6.5034044885       29.9837457764
  H         8.3470745823        8.1778540287       30.0336855014
  H       -10.4893782664        9.6631569808       25.5596831857
  H        -9.5384846977       10.6415686112       26.4750358344
  H        -9.2857286042        9.0475469461       26.7982837373
  C        -4.0786873805       14.8903734570       38.4566226180
  N        -3.5946995965       16.1460124952       38.6140035691
  O        -2.6357335215       17.8639578169       37.3741890387
  S        -4.7833435510       13.9991303641       39.8575360926
  C        -3.6626909160       16.7965733539       39.9084290744
  H        -3.5219782046       17.8900219880       39.6534686754
  H        -4.6762269941       16.7049471825       40.3914163748
  C        -2.5178059650       16.3668870780       40.8083343113
  H        -2.2405835977       15.3809149526       40.5996537342
  H        -1.5790249014       16.9097351175       40.7069844749
  H        -2.9003778288       16.4369119157       41.8034690921
