352
 i =    88400, time =    88400.000, E =        25.2454435579
  H         9.5840123786        6.8701546218       31.1521217632
  C        10.5777284368        6.8667588497       31.6680666388
  H        10.7801208842        7.9115297539       31.9683362694
  C        11.5483445162        6.2153118160       30.6855454116
  C        10.5732715817        6.0485192157       32.9701947256
  C        10.7828011001        5.0366426839       29.9200913214
  H        11.9076291414        7.0148450248       30.0619485148
  H        12.4016765826        5.8234931974       31.2683990895
  H         9.9604718587        5.1194050957       32.8725300138
  H        11.5212723923        5.7809679259       33.3088820003
  H        10.2655358551        6.6081632425       33.8513083950
  C         9.7965827042        5.4138815926       28.8592121258
  H        10.2750500703        4.2714708545       30.5086543595
  H        11.6405994389        4.3801216252       29.5304478831
  C        10.3436919188        5.2013033212       27.4804334172
  H         8.8694524940        4.7954982537       28.9487478716
  H         9.4556390934        6.4594742375       28.7609126898
  C         9.4097176585        4.7098888782       26.4229331574
  H        11.1270352789        4.4474270388       27.5704526254
  H        10.8589179819        6.0427436579       27.0160037366
  C         8.1279852002        5.6294131783       26.3061443764
  H         9.9326236307        4.7924405720       25.4524606239
  H         9.1377566804        3.6679930630       26.5220327540
  C         7.0246689379        4.9922485622       25.2905577198
  H         7.5201191259        5.9255002317       27.1401011803
  H         8.5514272645        6.5459507028       25.8844186987
  C         6.5978143425        3.6666701831       25.8705427140
  C         7.5634466110        4.2423895511       24.1039863490
  C         5.8548111318        5.8467530711       24.8521220744
  C         6.9254608394        2.5595899380       25.1261419872
  C         6.0829856039        3.2742579070       27.1324551585
  C         7.5636408217        2.8933857759       23.9830240097
  C         8.0991637975        4.8622184613       22.9991783411
  H         5.3369628227        5.4331910782       24.0754981858
  H         6.3263317948        6.7360618989       24.4947707268
  C         4.8674441289        6.2395188007       25.9182870400
  S         6.5077458326        1.0868140150       25.8193795690
  C         5.9543088133        1.9290184900       27.3003964279
  H         5.7647521126        3.9494345064       27.8860885580
  C         8.1010058840        2.2743042113       22.9626544538
  H         8.1125365558        5.9418186137       22.9524874771
  C         8.5047402161        4.2381149416       21.8657573051
  H         4.8743401028        5.5147128504       26.7575104344
  H         5.2062113211        7.1820828665       26.3971971017
  C         3.4701057053        6.3490157266       25.3370615317
  C         5.4285488915        1.2995346660       28.5882033653
  C         8.5761150339        2.9145194711       21.8565376121
  H         7.9269887192        1.1930846704       22.7956963035
  C         8.9364825289        4.5939037970       20.5920819249
  H         3.3282550228        5.3389246838       24.7618197414
  H         3.3792765810        7.1294892754       24.5796381599
  C         2.3844965189        6.6752659568       26.3720758625
  C         5.6507979370       -0.0128766682       28.9613431446
  C         4.9703292560        2.1648403966       29.6647192071
  C         8.9811284132        2.1640353501       20.6635481777
  C         9.2459990393        3.4507827926       19.9062295828
  S         9.3140268910        6.0984793587       19.7683225982
  H         1.4569273132        6.7868772218       25.8324816336
  H         2.4524000854        7.5887845899       26.8826372179
  C         2.1078571376        5.4816344025       27.3339639188
  N         6.2659278332       -0.9266890162       28.0896651575
  C         5.3793930953       -0.5036979548       30.2080436015
  C         4.6589468304        1.7162205401       30.9713896382
  H         4.8660274058        3.1963145558       29.5088150567
  C         7.8420294755        1.3384546886       20.0149537602
  C        10.3698975955        1.4537158801       20.8738648350
  C         9.7798490852        3.7787391886       18.6120105534
  C         9.8169957833        5.1573061982       18.3913786671
  H         1.9031680821        4.5883168421       26.7531156047
  H         2.9542594986        5.1952806355       27.8788785034
  C         0.9504718031        5.6629391512       28.3512019654
  S         6.3353376979       -2.3658525597       28.8535464535
  N         5.7749038242       -1.8540488798       30.3051875522
  C         4.7864065971        0.2478198805       31.2789206916
  H         4.1511363481        2.3778466051       31.6791960668
  H         7.3593344092        0.5473997235       20.6781864265
  H         8.3069842143        0.7235739406       19.1970542064
  C         6.5374420840        2.1710027181       19.6018336486
  H        10.6480618961        0.9731150022       19.9412582869
  H        10.2383446897        0.6344193173       21.5545938913
  C        11.5331632937        2.2840222724       21.4423151610
  H        10.1685977656        3.0344561380       17.9674175281
  C        10.2018581496        5.8727755295       17.1597199855
  H         0.6631167188        4.6173407219       28.4598660876
  H         0.0927731283        6.1084701524       27.9260963126
  C         1.1872649896        6.3738693069       29.6786741757
  C         4.5182670328       -0.3747341734       32.4986902521
  H         6.7805925417        3.0476594325       19.0120670565
  H         5.8958347456        2.3578958512       20.4331341289
  C         5.6050260123        1.3597129880       18.6810305145
  H        11.1825247889        2.9828461865       22.2318088373
  H        11.8904814939        2.8909547050       20.6973151786
  C        12.6642899431        1.3440292271       21.9056069734
  C        10.2418868413        7.3102442326       17.0285866325
  C        10.3892435797        5.1744737406       15.8596392605
  H         1.8120389463        7.2558657479       29.6227538088
  H         0.2752891779        6.6790185770       30.1435728480
  C         2.0293654592        5.6146138727       30.7815968710
  H         4.5525408115       -1.3936189316       32.4294690154
  C         4.2378677395        0.0556145865       33.7616239218
  H         5.4255639712        0.4421586954       19.2760930529
  H         6.2274333589        0.9853362057       17.8073656632
  C         4.2686933846        2.0723150662       18.2591236573
  H        13.1137158312        1.7726782015       22.7917737086
  H        12.3000673095        0.4045365658       22.3465989095
  C        13.8893749600        1.3355138096       20.9651721548
  N        10.0739958004        8.2387766571       18.0691944452
  C        10.4292535603        7.9667979405       15.8236042243
  C        10.6235344249        5.8580505650       14.7087012793
  H        10.0888086553        4.2163399348       15.8547875739
  H         2.2517434205        6.3444330939       31.5513976931
  H         1.5072113213        4.7152982874       31.1725867747
  H         3.0120331257        5.3425576656       30.3414551185
  S         3.9029063599        1.6898066142       34.3063986682
  C         4.1639358210       -0.9607965074       34.7743907812
  H         4.5228410025        3.1747704181       18.1236717942
  H         4.1795365486        1.8021487140       17.1887775227
  C         3.0170981153        1.8223047816       18.9579969290
  H        13.9373467180        2.2283582955       20.2809146075
  H        13.7999839008        0.5508824800       20.3285167290
  C        15.1735522903        1.0424206183       21.7277481074
  S        10.0177745253        9.7623663670       17.4787616568
  N        10.4226102942        9.4056093403       15.9618403625
  C        10.7414630411        7.3199981051       14.6196666081
  H        10.8016011791        5.2845096092       13.8188275388
  C         3.7609985507        0.9385419597       35.9193177983
  N         3.8576501652       -0.3860682804       35.9810554473
  O         4.2868498293       -2.1456119971       34.5862466926
  H         2.5015807063        2.7499887485       19.0871292502
  H         3.2680741399        1.5080710485       19.9969094277
  C         2.1854850313        0.6909541944       18.3663580963
  H        14.9388070163        0.4937169977       22.6052692837
  H        15.8068510224        0.3913961707       21.0733467914
  C        15.8261038269        2.3170219423       22.2061742016
  C        11.0906535115        8.0882626917       13.4505393041
  S         3.3245774533        1.8080469586       37.4350401460
  C         3.7889615194       -1.1901812681       37.1450232782
  H         1.2702187122        0.5997637748       18.9551028460
  H         2.0940872421        0.7806402355       17.3066432236
  C         2.7840292092       -0.7190455396       18.5352844965
  H        15.0760673349        2.9848874413       22.5970384694
  H        16.2804915179        2.6353184106       21.2773842916
  C        16.9929048566        2.0122552601       23.1424744414
  H        11.0143848187        9.1534504166       13.5572758029
  C        11.5203585716        7.8408883028       12.1801384173
  H         2.9688473265       -0.9964751435       37.8943483803
  H         3.4434224020       -2.2004117276       36.7837099503
  C         5.1459200729       -1.2057967224       37.8126401522
  H         2.8988458429       -0.9865441230       19.6384976917
  H         3.8466673199       -0.8360652812       18.2239845568
  C         1.9608085005       -1.8201485767       17.8246942516
  H        17.3134478295        2.9033374421       23.7181194496
  H        16.5601744292        1.3501665823       23.8640248948
  C        18.2301524719        1.5751598294       22.3796546453
  S        11.9720376911        6.3211080415       11.5520452929
  C        11.6600899447        8.9789735694       11.3485517174
  H         5.3153751194       -2.2625178949       38.1684518042
  H         5.9432135994       -0.9407113905       37.1024771491
  H         5.3238088062       -0.5231149295       38.6788995426
  H         1.2993100700       -2.3056111900       18.5887210818
  H         2.4986263434       -2.5697527661       17.1830999271
  H         1.2729246026       -1.5239116676       17.0438335511
  H        18.7667275486        2.4549973213       22.1800931945
  H        17.9762000537        1.0609531868       21.4820629354
  H        18.9591804107        0.9510842084       22.9503145715
  C        12.2803998815        7.2226566777       10.0507163109
  N        12.0966574278        8.5952104133       10.1288293653
  O        11.3664729779       10.1135524191       11.6801106944
  S        12.8677745571        6.5406226855        8.5546945034
  C        12.2866996569        9.5967084100        9.0814564720
  H        12.5252713880       10.6005711687        9.5060378299
  H        12.9951054569        9.3461856726        8.3449004714
  C        11.0203109875        9.8382113772        8.2582985053
  H        11.1933420724       10.6523967259        7.6007200702
  H        10.6920021068        8.9921856309        7.6058804488
  H        10.1479508044       10.1051491386        8.8008259166
  H        -3.2785753262       14.8426200663       16.5806583630
  C        -3.0643665584       13.7277883515       16.3932541136
  H        -4.0384127387       13.2325144978       16.4394667766
  C        -2.1176647355       13.3016296651       17.5006692829
  C        -2.6246480149       13.5163210631       14.9594238736
  C        -2.4643706987       13.8880994938       18.8865067746
  H        -2.0819638123       12.2461130448       17.4753300549
  H        -1.1101218908       13.5948393175       17.3053465688
  H        -3.4736613690       13.5678327535       14.3023341401
  H        -1.7444862887       14.1766708600       14.7311778012
  H        -2.2851141031       12.4259827818       14.7388172231
  C        -2.6144649185       12.8221557346       19.8940522046
  H        -3.4097053416       14.4552376319       18.8413764374
  H        -1.6080530086       14.5271640846       19.0721834034
  C        -2.7527557778       13.3144779343       21.3524709586
  H        -3.5369528067       12.2712202237       19.6435089883
  H        -1.6749330786       12.3043226235       19.8758358084
  C        -1.6311033203       12.8274197025       22.2420482852
  H        -3.7255014655       13.0731216882       21.7506957922
  H        -2.4978487196       14.3809385204       21.3131499385
  C        -0.4130492910       13.7382812140       22.3049654936
  H        -2.0873088714       12.9027865631       23.2517152075
  H        -1.3179425318       11.8104159428       21.9664493766
  C         0.7654879798       13.0881843243       23.1062627897
  H        -0.1373562815       13.9819890665       21.2836931176
  H        -0.7099356205       14.6615853495       22.7028503410
  C         1.1577537770       11.7418768357       22.4798113579
  C         0.4410555074       12.3604823418       24.3676372239
  C         2.0198683314       13.9432086303       23.1332499006
  C         0.9749157500       10.6758606840       23.3582522853
  C         1.7475679998       11.3412363646       21.2904359891
  C         0.5025940173       11.0204294346       24.5544240897
  C        -0.0278320777       13.0473185032       25.4837086512
  H         2.0539064639       14.6378051735       22.3003455605
  H         1.9806998485       14.7594716573       23.8322773787
  C         3.2884517591       13.3049380778       23.6294766342
  S         1.3615233651        9.1540562469       22.5196787271
  C         1.8640415226        9.9759737107       21.1402863221
  H         1.9794343665       12.1661134917       20.6942098118
  C         0.1035561444       10.4140369231       25.7450021661
  H        -0.1976228028       14.0656067611       25.2725140082
  C        -0.3906378170       12.4609608741       26.6605953877
  H         3.5361663223       12.4021790500       23.0865402687
  H         3.2116896357       13.0758634187       24.7314572551
  C         4.5290443192       14.2958669936       23.4637354320
  C         2.3742299587        9.3309932499       19.8803241528
  C        -0.4094837138       11.1283725206       26.8370451947
  H         0.2170522124        9.3458794333       25.7992512885
  C        -0.8712476875       12.8686104805       27.8613667778
  H         5.3844661522       14.0459088907       24.2076695891
  H         4.2623362057       15.3071020022       23.6777387128
  C         5.3288749643       14.2824546256       22.1052572347
  C         2.4177573550        7.9275966255       19.6067722449
  C         2.7510843891       10.1841429190       18.7434635519
  C        -0.8241631081       10.4879488848       28.0987263880
  C        -1.1026241087       11.8361374777       28.6817221105
  S        -1.2167758944       14.4400576672       28.5970833415
  H         5.6976851239       15.2094599765       21.9736926959
  H         4.5397012702       14.2112676257       21.3001103237
  C         6.3509324541       13.0669825079       21.9158334683
  N         2.2723192327        6.9474413869       20.5616452131
  C         2.7922812358        7.3845327934       18.3765861101
  C         3.1360875960        9.6412315671       17.5177445481
  H         2.7592832578       11.2863896061       18.8390084414
  C         0.3311844679        9.6771660465       28.8135019804
  C        -2.0089527966        9.6395204151       27.7877644492
  C        -1.6617556896       12.2019173475       29.9138633480
  C        -1.7642899084       13.5817360431       30.0545465984
  H         6.9348461339       12.9305501061       22.8281681954
  H         5.8949888236       12.0982762859       21.7583630576
  C         7.3350965885       13.1497212937       20.7883101599
  S         2.3387741212        5.5154055433       19.8573716763
  N         2.6971913080        5.9595795252       18.3449290837
  C         3.2892135750        8.1971977752       17.3044985157
  H         3.4272705662       10.2721987708       16.6793539831
  H         0.5329856256        8.8792749120       28.1273502344
  H        -0.0207616207        9.2840526737       29.8071066197
  C         1.6182707228       10.5312841086       29.0273108963
  H        -1.8918125048        9.2164529705       26.7169185402
  H        -1.9445501822        8.7703235030       28.4458010342
  C        -3.4829983915       10.1588267459       27.6847907603
  H        -1.9277858239       11.4035651588       30.5746420640
  C        -2.2353977703       14.2719513657       31.2853193320
  H         7.9451304082       12.2419622984       20.6003462777
  H         8.0508825000       13.9455755381       20.9590760119
  C         6.5431948434       13.4443075370       19.4156461583
  C         3.4885216233        7.5922490857       16.0263147567
  H         1.9351920614       10.8885748133       28.0816798971
  H         1.4140716369       11.3022228372       29.7538348018
  C         2.7557045118        9.6975980332       29.5443018051
  H        -3.5269955648       10.8931084618       26.8644527930
  H        -3.7286121735       10.7019525056       28.6123971421
  C        -4.3335783850        8.9391784686       27.3832705104
  C        -2.1352885967       15.6953773537       31.5205999784
  C        -2.5119780784       13.4132314593       32.4013122373
  H         5.6654092763       12.7755934273       19.4086118801
  H         6.0928357800       14.3752036565       19.5170164617
  C         7.3438132649       13.2754276527       18.0283526920
  H         3.3486068100        6.4951032115       15.9897190700
  C         3.7982631020        7.9468747980       14.7313104030
  H         3.1136893049        8.9044676925       28.8239864889
  H         2.4578599694        9.1421108257       30.4626838590
  C         3.8963256643       10.5553426287       29.9507740699
  H        -3.8822314204        8.3109485421       26.5498000522
  H        -4.3999489053        8.3210458439       28.2538574307
  C        -5.7967762826        9.3551054421       27.2890919031
  N        -1.8318664843       16.7139965347       30.6317639889
  C        -2.3219136563       16.2239668325       32.7908682141
  C        -2.6820508351       13.9294149707       33.6847160266
  H        -2.6517251563       12.3142623468       32.3260650284
  H         6.5732833290       13.1030724669       17.3027680559
  H         7.8038827787       14.2763259797       17.8543913843
  H         7.9801258408       12.4520863193       18.0034279235
  S         4.1626759952        9.5620771571       14.2414963540
  C         3.8333336211        6.8734715152       13.7023823292
  H         4.4483528928       10.6932992004       28.9606911800
  H         3.5766012783       11.4822103328       30.2537548976
  C         4.9591156855        9.9352034500       30.9035768687
  H        -6.0790706757       10.1759647300       27.9453498415
  H        -6.4703436707        8.5985445470       27.6511577106
  C        -6.1355998087        9.7490245501       25.8782082979
  S        -1.9744247767       18.1860986575       31.3438378053
  N        -2.1394735615       17.5945544815       32.8569993506
  C        -2.4881375140       15.4229060364       33.9553100654
  H        -3.0460208252       13.3121358790       34.5384768608
  C         4.4218016793        8.8400361461       12.7204387490
  N         4.2801020615        7.4823795464       12.5911948503
  O         3.5223878786        5.6632894265       13.8876760802
  H         4.5173530222        9.2554308566       31.6306435144
  H         5.4723422952       10.7233356968       31.5199015445
  C         5.9710831090        9.2057843523       30.0985661795
  H        -5.3030962505       10.3188983991       25.4089997125
  H        -6.3893946200        8.9218315999       25.2621453606
  C        -7.3999506750       10.5093259674       25.8490251958
  C        -2.6677922267       16.0583015225       35.2103927511
  S         4.8270171034        9.7405424700       11.2594943361
  C         4.2431807449        6.7524353591       11.3161892202
  H         6.2826162263        9.6969875836       29.2223787721
  H         6.8682657084        9.1707137070       30.8480132877
  C         5.6269439296        7.6965352938       29.7944165913
  H        -7.6047114460       10.9524832859       24.8529360214
  H        -7.3638807831       11.3813322044       26.5071704196
  C        -8.6076964626        9.6516757450       26.1157159375
  H        -2.3984722348       17.0941986874       35.2665920681
  C        -3.2446445640       15.6345236663       36.3813635806
  H         4.9780343028        7.2078304234       10.6620648211
  H         4.6849745729        5.7171690268       11.4637115204
  C         2.8579273208        6.8222105028       10.6717408990
  H         6.3869588165        7.3324020835       29.0758572791
  H         4.5993839796        7.5292894472       29.3571610683
  C         5.6983274029        6.8367019561       31.0643217907
  H        -8.7666613948        8.8546145836       25.4161517689
  H        -8.4884153689        9.1312413790       27.0932987469
  C        -9.8388053501       10.4925764822       26.1223951084
  S        -3.7400892293       14.0093306382       36.8928433824
  C        -3.4376968299       16.6283072420       37.4679728297
  H         2.6300158797        6.2416883374        9.7498155374
  H         2.1239222902        6.6384077640       11.4320263812
  H         2.6440305292        7.8790660681       10.4244744052
  H         5.7651797541        5.8259429960       30.8092440998
  H         4.9020607144        7.0407446054       31.7975972819
  H         6.5424531101        7.0372737820       31.7345387816
  H        -9.7168153068       11.4789952565       26.3674432367
  H       -10.7041365389       10.1530808936       26.5388207665
  H       -10.2948040567       10.4591253805       25.0768713185
  C        -4.2615372143       14.7364300550       38.3997401861
  N        -4.0064905059       16.0880030859       38.5515519901
  O        -2.9190836776       17.7582214976       37.3830136214
  S        -5.0351737883       13.8087958391       39.7428206989
  C        -4.1268489011       16.8085778193       39.8256437106
  H        -4.1960511516       17.8724006486       39.7062317478
  H        -5.0139610013       16.5363271931       40.4687109770
  C        -2.8583719259       16.4733762291       40.5871327659
  H        -3.1208164771       16.4774985319       41.6101087441
  H        -2.5089700489       15.4906110798       40.4304534340
  H        -2.0706111757       17.2139376068       40.4353160977
