352
 i =    18700, time =    18700.000, E =        25.1017348410
  H        11.5666836558        7.3250730507       31.6219098393
  C        11.3754619002        6.3090759574       31.8416500045
  H        12.2464523853        5.8304846673       31.4234833187
  C        10.2249775982        5.6973265692       30.9893301231
  C        11.1649490590        6.0070880611       33.2821135804
  C        10.2721786305        6.3602017479       29.6113052341
  H        10.3297842210        4.6183705030       31.0117070373
  H         9.2701640038        5.8446823796       31.4748007246
  H        10.1370303094        6.2031202986       33.5551282244
  H        11.4148985519        4.9889084399       33.6279378301
  H        11.6987375746        6.6995180056       33.8872357617
  C        11.2374664478        5.6163543387       28.6705164743
  H        10.3926245851        7.4220558920       29.5970664817
  H         9.2232799307        6.1660897542       29.2753486713
  C        10.9316262958        5.6367746385       27.1588521635
  H        12.2468139800        5.8611261879       28.8055466559
  H        11.1901271901        4.5368492605       28.9920731218
  C         9.6120691168        4.9996779759       26.7882077428
  H        11.7546888986        5.1532025823       26.5814220010
  H        10.9641903273        6.6768258554       26.8667306376
  C         8.4769707791        5.9551516939       26.2275962120
  H         9.8466928122        4.2127607328       26.1753074815
  H         9.0465639365        4.7117272954       27.6303973926
  C         7.3659743398        5.3079059539       25.3112635899
  H         8.1081666566        6.5181653658       27.1018870908
  H         8.8962837270        6.6839461399       25.5807302050
  C         6.9156306957        3.9338091560       26.0007492331
  C         7.8816847474        4.4557546767       24.1207969328
  C         6.0387674551        6.1272968098       25.0826691700
  C         7.1959988006        2.7743028296       25.2814452701
  C         6.2382204419        3.6184575678       27.1870514732
  C         7.8207233031        3.0978189449       24.0607374012
  C         8.4313970497        5.1472906946       23.0227099751
  H         6.1604699155        6.7868995774       24.2510645873
  H         5.7533170847        6.6728309609       25.9667688989
  C         4.8274532175        5.3114257126       24.6666657670
  S         6.6364931552        1.3434011809       26.0326355885
  C         6.0710937807        2.2843437879       27.3493613746
  H         6.0738701214        4.3628573291       27.9374468278
  C         8.3299422980        2.4405521615       22.9726142652
  H         8.4321981537        6.2059904861       23.1212899205
  C         8.7710606888        4.5311139242       21.8447830897
  H         5.0821033073        4.7386504105       23.7561756862
  H         4.5607905792        4.5438473775       25.3648973952
  C         3.5985241426        6.1891565190       24.3831473750
  C         5.7425047329        1.6050426195       28.6648187535
  C         8.7106013247        3.1424392717       21.7622883061
  H         8.4098165234        1.3529282295       23.0225511078
  C         9.1956192869        4.8631606350       20.5549964626
  H         3.0445781549        5.6409880259       23.6400282714
  H         3.9253453241        7.1311096720       23.8869023274
  C         2.7863468467        6.6076264838       25.6893776888
  C         5.7020787716        0.1661459332       28.9232244858
  C         5.3835674962        2.4783991476       29.8452247495
  C         9.1054127635        2.4709020072       20.5163097852
  C         9.3880043354        3.7711737746       19.7286094184
  S         9.4431094812        6.4205796058       19.7416050826
  H         2.1208269019        7.4052910733       25.4834553409
  H         3.6044015707        6.9835449476       26.3660538887
  C         2.0309846488        5.4933780987       26.3830274000
  N         6.0093617568       -0.7770965396       27.9430261955
  C         5.5116271484       -0.3870657215       30.1623450258
  C         5.1360333111        1.9113150513       31.0819873105
  H         5.3122012021        3.5473184241       29.7151941314
  C         7.8970543018        1.7261905293       19.8944346316
  C        10.3945900631        1.6295003041       20.7509365565
  C         9.5357027852        4.1554691111       18.4055361895
  C         9.5717031377        5.5212605875       18.2446287442
  H         1.2556936624        5.0402540414       25.6872124157
  H         2.7587068328        4.6784702298       26.5526462561
  C         1.3380763427        5.8133490864       27.7466775184
  S         5.9098493734       -2.2623131722       28.6043515933
  N         5.6623302316       -1.7912591416       30.1318629908
  C         5.2762026051        0.4012332549       31.2891652927
  H         4.9738095349        2.6028026627       31.8342660788
  H         7.7993868884        0.8946253696       20.5105990964
  H         8.1911416649        1.3064686318       18.9021032985
  C         6.6047108239        2.5506275419       19.7486038760
  H        10.7723341304        1.2795685378       19.7848327564
  H        10.2116794394        0.7938257018       21.4013724344
  C        11.5545723297        2.5035591716       21.2802655706
  H         9.7383416087        3.3994313575       17.6640565011
  C         9.8799462388        6.3087863194       16.9020587801
  H         0.4893010466        5.1998744331       27.7901495105
  H         1.1853866682        6.8519345558       27.6237070301
  C         2.2924413823        5.7879062777       28.9810075432
  C         4.9372057592       -0.3550737892       32.4518477963
  H         6.7439621367        3.4736241840       19.1419429088
  H         6.0957270225        2.7873494244       20.6758099481
  C         5.5853131715        1.7220624751       18.9658280690
  H        11.3424704736        2.7795547909       22.2834572446
  H        11.6708611455        3.3629749523       20.6309320640
  C        12.8962206736        1.7881417346       21.2232255250
  C        10.0029123061        7.7101998604       16.8122918059
  C         9.9202563954        5.5087484889       15.7060257346
  H         2.7885133273        4.8573047368       28.9252943942
  H         3.0218843665        6.5098104655       28.5889111763
  C         1.5669904395        6.0527931172       30.3018946427
  H         4.9851101329       -1.4414007629       32.3274024769
  C         4.5924141827        0.0391987429       33.7569589581
  H         5.2048364227        0.9193151513       19.6123708711
  H         6.0427393890        1.3138105718       18.1131352017
  C         4.4445170574        2.4996126609       18.4134138677
  H        13.0141748050        1.1438324066       22.0828460832
  H        13.0523862400        1.1649151053       20.3130226366
  C        14.0415267071        2.7123123683       21.2262053630
  N         9.8502457927        8.6346941789       17.8520694743
  C        10.2967912239        8.2512262246       15.6066421286
  C        10.1456560150        6.1348178753       14.4834325147
  H         9.7346821279        4.4445280470       15.7060228865
  H         1.8977473520        7.0034330175       30.8244031143
  H         0.5229207386        6.0338913334       30.0632861201
  H         1.7428293047        5.3554530475       31.1673674014
  S         4.4568909237        1.7163999534       34.2740856815
  C         4.6805408200       -0.9865842270       34.8231449885
  H         4.3803388745        3.5637479489       18.7555228080
  H         4.5959442087        2.5325455181       17.3670637583
  C         3.0901951187        1.7859687211       18.5757058689
  H        13.8783995526        3.5875479680       20.5717212267
  H        14.9230344198        2.2061409245       20.8783088797
  C        14.2210793238        3.2350622164       22.6195743044
  S        10.0348112794       10.1162502042       17.1930121050
  N        10.5026996841        9.6715686734       15.7265952465
  C        10.5096140683        7.5560098652       14.3905491371
  H        10.0874068320        5.4911960329       13.5586883787
  C         4.2757961251        0.9507263689       35.8609741445
  N         4.2604394101       -0.4142566598       35.9501284773
  O         4.8536185520       -2.1968054756       34.6453102434
  H         2.3119528117        2.5801380119       18.4177983038
  H         3.0046339430        1.4819239758       19.6744124297
  C         2.9646956939        0.6433735105       17.6020105010
  H        14.6455190808        4.2008496649       22.4216479423
  H        13.2681831299        3.4419828821       23.1275702498
  C        15.0638049978        2.2671225189       23.4566872300
  C        10.9819546244        8.2608250983       13.2413884820
  S         4.2359311389        1.8414949076       37.3378387332
  C         4.2799077814       -1.1195547501       37.3088209732
  H         2.2790729117        0.9623982401       16.8500590814
  H         3.8720447392        0.4764507886       17.0731974204
  C         2.4857067178       -0.5821381379       18.3542338869
  H        15.0550323733        1.2334498376       22.9934550633
  H        14.4410040334        2.1902763346       24.3644774808
  C        16.4635616234        2.8273361912       23.5915245854
  H        10.8790635948        9.2972345094       13.1793706029
  C        11.5163949196        7.7591699330       12.0747789493
  H         3.7845461239       -0.5853707711       38.0989447363
  H         3.9045558054       -2.1255207862       37.2623182429
  C         5.6852342662       -1.3025563401       37.8465068667
  H         1.4908015667       -0.4932570638       18.8391212187
  H         3.1965479570       -0.6610365143       19.2590786284
  C         2.6017095003       -1.9085031332       17.6440014993
  H        16.3210375715        3.8548001730       23.8695448715
  H        17.0738537342        2.3215138715       24.3375085990
  C        17.3035739448        2.9731631892       22.2909742522
  S        12.0050699903        6.2024322492       11.8695685815
  C        11.6638071443        8.6941780891       10.8907500930
  H         5.8038758685       -1.7390198771       38.8481206762
  H         6.3241243066       -2.0203228721       37.3104337700
  H         6.1264354140       -0.3454416649       37.9707913431
  H         2.1256900474       -2.5801426534       18.2751089485
  H         3.6357037479       -2.2660964800       17.5515789102
  H         2.2275485193       -2.0067936652       16.6405694897
  H        18.2189629436        3.5020512974       22.5084376069
  H        16.8189860452        3.6259053309       21.5301779083
  H        17.5884850331        2.0161483720       21.8321383036
  C        12.5127796131        6.7249763021       10.2471193839
  N        12.1252503683        7.9518690501        9.8747370109
  O        11.3773512016        9.9401962459       10.9288086649
  S        13.4660797185        5.8226303396        9.1272142778
  C        12.6103750120        8.5713070183        8.6716799598
  H        13.6789233649        8.6682277986        8.8455619812
  H        12.5308464408        7.8958114688        7.8516814902
  C        11.9790319237        9.8707755160        8.2259824937
  H        12.3409490140       10.6969338993        8.8187632621
  H        12.2776305780        9.9810313535        7.1872259292
  H        10.8605627142        9.8970394665        8.4058700919
  H        -3.3200780784       14.9891609558       16.8305795090
  C        -3.2765977921       13.9319300904       16.7244644000
  H        -4.3067914071       13.5930664321       16.8508523051
  C        -2.2423201056       13.4884107513       17.7147886511
  C        -2.7457525381       13.5963674734       15.3261883822
  C        -2.6011245926       13.8370766867       19.1770535552
  H        -2.1880222565       12.4050395505       17.7180462279
  H        -1.3016065253       13.9276376209       17.3561439926
  H        -3.3852139838       13.8856240468       14.4827149882
  H        -1.8186702461       13.9752174718       14.9775214867
  H        -2.7921160772       12.5437029615       15.1358626006
  C        -1.5316699156       13.3097819747       20.2040711231
  H        -3.5831088671       13.4299116038       19.3748145134
  H        -2.7081894928       14.9047161104       19.3874193207
  C        -1.9441028070       13.6450619900       21.6068841433
  H        -1.4388464141       12.2082773125       20.1050255682
  H        -0.5759018594       13.6760894865       20.0396650336
  C        -0.9569145459       12.9654059233       22.5993418585
  H        -2.8948377865       13.0861514248       21.8244500215
  H        -2.2148698847       14.7309560702       21.8699221724
  C         0.2575507863       13.8777443645       22.8189002811
  H        -1.4764004751       12.8678822707       23.5291578712
  H        -0.7332262650       12.0173205838       22.2682698084
  C         1.4561854821       13.1828800906       23.4317350337
  H         0.5002881418       14.4350730184       21.9507865676
  H        -0.2568333123       14.6091297932       23.4735384421
  C         1.7549297173       11.7981818246       22.7942147165
  C         1.0633931074       12.4513107802       24.6862477503
  C         2.7463004132       14.0354877527       23.6486423761
  C         1.3518082538       10.7352849330       23.5867148173
  C         2.2461835740       11.3420611236       21.5360275280
  C         0.9465342664       11.1468764795       24.8584867822
  C         0.5347650215       13.1651903110       25.8235815645
  H         3.2111506391       14.4835329294       22.7188335085
  H         2.3126030029       14.8326302118       24.2952075425
  C         3.8415468724       13.4282505278       24.4383213771
  S         1.4748571385        9.1688681516       22.7878805818
  C         2.1681335489        9.9638467453       21.3659356028
  H         2.6281408029       12.1241370957       20.8423856976
  C         0.4688103459       10.5053806311       25.9526659364
  H         0.4911178681       14.2111762326       25.7197967797
  C         0.0123172937       12.5529371727       26.9390928190
  H         3.9942993215       12.3791832574       24.0534005612
  H         3.5917735052       13.1934594798       25.4883617962
  C         5.3374744979       14.0756184321       24.3572140460
  C         2.5372420984        9.1985343776       20.1384804369
  C         0.0649322201       11.2343549126       27.0926992433
  H         0.3832367574        9.4380261261       26.0686806867
  C        -0.5735022508       12.8830290077       28.2017026045
  H         6.0069389714       13.3918566564       24.9216335074
  H         5.3913846697       14.9512708405       25.0268931269
  C         5.9510309739       14.5864392065       23.0078964132
  C         2.4329502267        7.8504843544       19.9032692848
  C         3.1862272106        9.9296216835       19.0527487684
  C        -0.5311219235       10.5085357293       28.3114039737
  C        -0.8068090928       11.8423134703       29.0219045516
  S        -0.8638746073       14.3231248152       28.9565290426
  H         6.8574629476       15.1092068330       23.1640008355
  H         5.3376708043       15.3635146789       22.4513871856
  C         6.2010307660       13.2883921837       22.2426617085
  N         1.9726907737        6.8835161362       20.8584042827
  C         2.6362895008        7.2345677941       18.7143082370
  C         3.5006532724        9.3359415749       17.8727417205
  H         3.4336716436       10.9704004391       19.1820705548
  C         0.4345074458        9.7711540811       29.1782906915
  C        -1.8973511188        9.7694124575       28.1508675195
  C        -1.2382284932       12.2134024914       30.3192824894
  C        -1.1839025441       13.5864169227       30.4589747489
  H         6.7812222379       12.6025843182       22.9082109769
  H         5.2644699151       12.8304877414       21.8685400695
  C         7.0089492457       13.4047124938       21.0555233486
  S         2.0849355639        5.3510303872       20.1976381891
  N         2.4108902548        5.8532371358       18.7062138905
  C         3.2071862591        7.9333807645       17.6202950079
  H         3.9305939179        9.9489554856       17.1462384621
  H         0.6697355561        8.8287895749       28.6087071632
  H         0.0582478519        9.5592490511       30.2374615523
  C         1.7691937874       10.5029902742       29.4041934147
  H        -1.7700674349        8.9263154933       27.4664799195
  H        -2.1832612755        9.3366105370       29.0852214052
  C        -2.9308994204       10.5232603893       27.3969105835
  H        -1.4966365295       11.4784121781       31.0967968673
  C        -1.6146409657       14.3555445212       31.7211399359
  H         7.8480675045       12.7204956919       20.9938240404
  H         7.5293771557       14.3868479725       21.1267069856
  C         6.1914679531       13.3345976301       19.7778752340
  C         3.2798799775        7.3211458964       16.3088117106
  H         2.2370332584       10.7362832414       28.4644832048
  H         1.5846253235       11.5002503809       29.8932199157
  C         2.6788720566        9.8106422641       30.4052531720
  H        -2.5605813343       10.8194466226       26.3985759547
  H        -3.1529187548       11.4575736549       27.9748361328
  C        -4.2056332535        9.7965874631       27.2568265090
  C        -1.6099208079       15.7702778594       31.8527722647
  C        -2.0519884623       13.5934247246       32.9557200741
  H         5.7955414588       12.3085114779       19.5590648830
  H         5.2855901113       13.9666007090       19.8852633751
  C         7.1055921069       13.7081671356       18.5807162888
  H         2.9103427426        6.3280865914       16.2562881858
  C         3.5166959888        7.7881349644       15.0439427061
  H         2.9745840815        8.8392725533       29.9134177649
  H         2.1516371209        9.4799781548       31.2896321775
  C         3.9625734188       10.4243491483       30.8651382854
  H        -4.1746017773        9.0295810017       26.5459817210
  H        -4.4543054184        9.4182088642       28.2471910609
  C        -5.4055286098       10.7701227809       27.0612627194
  N        -1.3713672465       16.6834961934       30.7749988426
  C        -1.9154496299       16.4630506007       33.0347164923
  C        -2.3814111378       14.1761565973       34.1563170072
  H        -2.1875333730       12.5640917082       32.9021510889
  H         8.0631462514       13.1972843441       18.6741638688
  H         6.7312055242       13.5382574101       17.5950473792
  H         7.4342414051       14.7587831200       18.6719459856
  S         3.9029006181        9.4134260357       14.5127180965
  C         3.5340258862        6.8504030017       13.8859902760
  H         4.0105449995       11.4127051527       30.4291120447
  H         4.1957706379       10.5868218699       31.9213739321
  C         5.1640624652        9.6213172189       30.3846597533
  H        -5.3016525082       11.1793833812       26.0288574914
  H        -5.3980707542       11.5387109375       27.7938690607
  C        -6.6805047884        9.8806118961       27.1489247181
  S        -1.5773483711       18.1732338395       31.3033497425
  N        -1.9416856251       17.8245162218       32.8266728453
  C        -2.3657589838       15.6783719217       34.1929530693
  H        -2.7466433532       13.6176498974       34.9277202751
  C         3.9906391575        8.7830861613       12.8995218694
  N         3.7925363065        7.4433984923       12.7530228371
  O         3.3547837121        5.6533731525       14.0519327056
  H         5.9828788278       10.2535481318       30.4823488965
  H         5.0292370178        9.4033272020       29.2942462224
  C         5.3586307044        8.2495658003       31.0919144928
  H        -6.6016906753        9.0862445105       26.4031659532
  H        -6.7607837904        9.4625764775       28.0998434019
  C        -7.9563738235       10.6665420708       26.8662096247
  C        -2.7355693066       16.4914693685       35.3290997838
  S         4.5200904900        9.6871083843       11.5021697584
  C         3.6326054896        6.7366902576       11.5052190276
  H         5.7798893306        8.3373648955       32.0880543895
  H         4.3396175041        7.8436741436       31.2740941940
  C         6.2242575706        7.3348200829       30.1608910633
  H        -7.5686959059       11.6658075715       26.5173804733
  H        -8.4044728176       10.9938668733       27.7890171650
  C        -8.9377135539        9.8899894893       26.0413595896
  H        -2.7096636345       17.6066311419       35.0636252381
  C        -3.2974607128       16.1416649193       36.5388787636
  H         4.2620357389        7.1381150547       10.7615518455
  H         4.0216437761        5.7829626385       11.6358501872
  C         2.1800941134        6.7532848919       11.0437371115
  H         7.1485025081        7.7621017305       29.8747150690
  H         5.6797705824        7.1742373177       29.2099856960
  C         6.4845601621        5.9908027406       30.8295583670
  H        -9.0214440879        8.9344639426       26.5525874114
  H        -9.9954863134       10.3119307738       25.9893680964
  C        -8.5774041701        9.8446816274       24.5853216513
  S        -3.7595816502       14.5924379321       37.1787837273
  C        -3.4415393345       17.1992129872       37.5230476975
  H         2.1422918756        5.9705377176       10.2588893470
  H         1.5131899433        6.3470503411       11.8499806664
  H         1.8982448128        7.7559146841       10.6144580205
  H         7.0630572178        5.2725365274       30.1872916003
  H         5.4899323146        5.4916578842       31.0390486430
  H         6.8281846158        6.0930710175       31.9101245758
  H        -7.7800209633        9.1645103366       24.5571032158
  H        -8.1208343136       10.8016397786       24.3408739591
  H        -9.3927311714        9.5695725549       23.8768363753
  C        -3.8996955191       15.3770738511       38.7371002116
  N        -3.8092754548       16.7240881614       38.6734519377
  O        -3.3085591452       18.4047551756       37.2674591150
  S        -4.6510651993       14.6091117484       40.1919783069
  C        -3.9375485979       17.5508716488       39.8830380798
  H        -4.2661175698       18.6095647909       39.8351510176
  H        -4.7095732723       17.1013072236       40.4805954047
  C        -2.6591154450       17.6685275059       40.7578583193
  H        -2.6870443893       16.8781642598       41.4938633024
  H        -1.7306180877       17.4377100649       40.1419226893
  H        -2.5356691365       18.6054088948       41.2840247721
