352
 i =    33200, time =    33200.000, E =        25.1452671933
  H        12.5929979973        7.1851236731       32.0544165084
  C        11.9382303052        6.2431991889       32.1172077095
  H        12.5898465631        5.4137319462       31.9378814553
  C        10.7418487561        6.2712244227       31.1251869399
  C        11.4554392684        6.0089933325       33.5725875239
  C        11.2382135247        6.0015623645       29.7381596921
  H         9.9936658018        5.5826142532       31.3803185033
  H        10.3703663869        7.3527074292       31.1057011026
  H        10.7863498952        5.2008311721       33.5069214826
  H        12.1301126156        5.6769613644       34.3417523462
  H        10.9899252410        6.8418700808       34.1296557297
  C        10.0522881571        6.0780495579       28.6861317831
  H        11.5776106843        4.9683100522       29.8031916923
  H        12.0582588746        6.6342016677       29.3272433144
  C        10.6595400530        6.1582171115       27.2625243572
  H         9.3515151022        5.1914979878       28.7291813835
  H         9.3863255595        6.8830915114       28.9454546370
  C         9.7401216932        5.4697530020       26.2432627728
  H        11.6498057156        5.7142550874       27.3754453741
  H        10.8614516846        7.2333375152       26.9704376287
  C         8.5515065333        6.3141538880       25.8118606309
  H        10.3295652848        5.2087031869       25.3496507132
  H         9.5077613446        4.5097373093       26.6885316001
  C         7.4889928624        5.5189570820       25.1006381271
  H         8.0600898874        6.8851975158       26.6301182817
  H         8.9156690478        7.0996687754       25.1236818737
  C         7.0704594448        4.1711569153       25.7889188103
  C         7.9809656594        4.7457753543       23.9180054834
  C         6.2167830547        6.3980313140       24.9532482553
  C         7.3278113831        3.0454768951       25.0206340442
  C         6.4099113127        3.7621008952       26.9691220266
  C         7.8516947927        3.3991583778       23.7942160969
  C         8.4359531646        5.4227893272       22.7782806541
  H         6.4609045049        7.1457667889       24.1568338646
  H         5.9363618824        6.8540405452       25.8743262566
  C         5.0214531265        5.6357899830       24.3029921450
  S         6.9937462680        1.5810639800       25.8419193324
  C         6.3940775393        2.3949913748       27.1598945130
  H         6.0793746063        4.4979659933       27.6565741378
  C         8.2879742313        2.7824815989       22.6670562997
  H         8.4483717810        6.5060331682       22.9979214370
  C         8.7775583278        4.8254999065       21.5753629310
  H         5.3707355675        5.3189114033       23.3576663747
  H         4.9459861597        4.7517221925       24.8962634827
  C         3.6952076159        6.2947338464       24.1133933311
  C         5.8885576801        1.7286749680       28.3997484339
  C         8.7601304411        3.4369411723       21.5414668094
  H         8.1191257254        1.7231753740       22.5565700601
  C         9.2196534416        5.1943108270       20.4319994757
  H         3.0913670477        5.8025770102       23.3388052515
  H         3.9864912888        7.2662214494       23.7148144272
  C         2.9755756378        6.3453080674       25.5050276141
  C         5.9898968288        0.3363757352       28.6719607271
  C         5.4099864592        2.5250169803       29.5530442284
  C         9.1013645121        2.7688210082       20.2156614216
  C         9.3855622345        4.1283713601       19.6067383921
  S         9.6002228948        6.7099102915       19.6764718907
  H         2.3646928762        7.2461802531       25.3416510484
  H         3.6998550181        6.6574701346       26.2585826803
  C         2.1610071268        5.1090487889       25.8942921268
  N         6.4349155048       -0.6654649606       27.8377501193
  C         5.7346185468       -0.2045388593       29.9195447291
  C         5.1268414386        2.0125925101       30.7907728737
  H         5.1737672102        3.5385966592       29.4255549793
  C         7.9047336385        1.8791444337       19.7120119880
  C        10.4158579393        1.9122755654       20.3008265060
  C         9.7956822384        4.5342611165       18.3366597644
  C         9.8867766753        5.9153940775       18.1768570146
  H         1.5716597169        4.6886255608       25.0538011679
  H         2.7606641602        4.2189392447       26.1979314803
  C         1.1951938843        5.4054386326       26.9558143732
  S         6.2184786725       -2.1141508687       28.5710014714
  N         5.6864302799       -1.5965671644       29.9762622892
  C         5.2845473477        0.5579178372       31.0694219410
  H         4.8089456462        2.6677640188       31.6249670444
  H         7.5473731963        1.3398399488       20.5742859566
  H         8.2544170461        1.2364889401       18.9134824160
  C         6.7078719695        2.7793081451       19.2437245899
  H        10.5662966830        1.6051605265       19.2985691936
  H        10.1345391086        0.9463103604       20.7476276698
  C        11.6678631205        2.5636989837       20.8539673955
  H        10.0172444160        3.8306707952       17.5390659419
  C        10.3541201355        6.5922410014       16.9124887588
  H         0.6196019147        4.4047241250       27.1842338424
  H         0.4304529688        6.0345354268       26.4340556991
  C         1.7438095087        5.9444312533       28.2402051237
  C         5.0735849495       -0.1119333933       32.3247089314
  H         7.2393392612        3.0839590573       18.4157889807
  H         6.6018392514        3.6545978647       19.9296568010
  C         5.5314937340        1.8659567413       18.9436223142
  H        11.4778258289        2.6869677440       21.8597756660
  H        11.7865174679        3.5628928314       20.5287800501
  C        12.8330052293        1.7180989979       20.6251372467
  C        10.6014232799        7.9609105828       16.8515220268
  C        10.4642027247        5.8163392623       15.7235062727
  H         1.7146814676        7.0016495758       28.0315542485
  H         0.9693379516        6.0294490777       28.9986682855
  C         3.1186410976        5.5046901228       28.7976220236
  H         5.2543492769       -1.1541731044       32.3281489318
  C         4.8594911713        0.3582535403       33.5834129105
  H         5.0485515640        1.5700414995       19.8691045058
  H         6.0173603124        0.9513166736       18.4790662140
  C         4.5531352900        2.5509554147       18.0762140616
  H        12.8238940369        0.8603224358       21.3541977974
  H        12.7601057122        1.2463345744       19.6361530241
  C        14.2413687479        2.3770282491       20.5976612118
  N        10.6423789769        8.8953616678       17.8934132650
  C        10.8652300794        8.5522542939       15.6485959939
  C        10.8143531819        6.3289414370       14.5112966972
  H        10.3132362565        4.7640628998       15.7009523258
  H         3.2864721105        4.4971895088       28.5136656905
  H         3.8698084503        6.1547339808       28.3635397060
  H         3.1615627097        5.6280996516       29.8888980273
  S         4.6102049183        1.9658715832       34.0206883640
  C         4.7918192616       -0.6106228316       34.7294116936
  H         4.0651183074        3.4024127210       18.6536584765
  H         5.0742445024        2.9629615746       17.2472180695
  C         3.4180924847        1.5853756482       17.7113054244
  H        14.2730547944        3.2808837403       19.9840765500
  H        14.9346985865        1.6686984693       20.0752902957
  C        14.6758714038        2.9069051581       21.9286093820
  S        10.6665329500       10.3572947523       17.2430633677
  N        11.0420771310        9.9644513466       15.7533187616
  C        10.9838081214        7.8359507998       14.4257799749
  H        11.0097229312        5.6722808481       13.6886569049
  C         4.3433927990        1.2884407261       35.6590915821
  N         4.3947890393       -0.0386186125       35.8351490846
  O         5.0138170765       -1.8332753583       34.4845744519
  H         2.5914194122        2.1408996656       17.2860866995
  H         3.0658794055        1.2053367668       18.6856245280
  C         3.7112683740        0.3941941967       16.8096461842
  H        15.4821044410        3.6481807973       21.8831430891
  H        13.8124000371        3.4749984087       22.3365351372
  C        15.3282516217        1.8211334324       22.8530784974
  C        11.3244564860        8.5844559444       13.1972033522
  S         4.1575993044        2.2992000969       37.0681187923
  C         4.4730653102       -0.7064412351       37.1388901813
  H         3.5167100227        0.7885236829       15.7680775872
  H         4.7696467298        0.0181776082       16.8237117244
  C         2.7696550724       -0.7688256795       17.1985991498
  H        15.6111819031        1.0012045911       22.1698673673
  H        14.5752324328        1.3686070269       23.5395727104
  C        16.4731683943        2.3543159711       23.7189099471
  H        10.9940039498        9.6533767250       13.3015440529
  C        11.8329977833        8.1801250718       11.9749749830
  H         3.9490882442       -0.1698035141       37.9571587921
  H         4.0623219051       -1.7183803545       37.1465493519
  C         5.9317903928       -0.9658285037       37.5758878727
  H         1.7554753421       -0.3681358623       17.0429632055
  H         3.1317659906       -0.9414440379       18.2511810877
  C         3.0129631686       -2.0993676574       16.4619880928
  H        16.1371227010        3.2612874228       24.2258802065
  H        16.7511748643        1.6181486726       24.4595434325
  C        17.7169764296        2.6315323626       22.8605633564
  S        12.4994533527        6.6622331721       11.5611449933
  C        11.9035820663        9.1583685792       10.9555479591
  H         6.3750113234       -0.0738307980       38.0084423497
  H         5.9953184022       -1.7189324617       38.3567282256
  H         6.5000715190       -1.3985933357       36.7136378154
  H         2.3991972870       -2.8476220657       17.0356274442
  H         4.0305741304       -2.4273863356       16.6636367353
  H         2.7736714620       -1.9605711852       15.4061953043
  H        17.6990426099        2.0637794667       21.9520544582
  H        18.6970122809        2.4601816299       23.3503131663
  H        17.7103796263        3.6316238185       22.5338982902
  C        12.8455708098        7.3479367659        9.9279046480
  N        12.4627887462        8.6670218338        9.8421590132
  O        11.6065125734       10.3403955007       11.0436275308
  S        13.5875531693        6.5577458908        8.5675095637
  C        12.4639750123        9.5255115108        8.7008706605
  H        12.8972476209       10.4744267538        8.9535433837
  H        12.9454092376        9.0157930970        7.9235041682
  C        11.0601101873        9.8324303953        8.1562094711
  H        10.9091113863        9.3909738345        7.1099977817
  H        10.2431027630        9.4478295934        8.8029137796
  H        10.9665396946       10.9816624135        8.0590522982
  H        -3.1249967078       14.8681500829       16.9612778297
  C        -2.7832031186       13.9016769990       16.7341751345
  H        -3.5238522794       13.1435677228       17.1964434216
  C        -1.4602789266       13.7338709214       17.4402126031
  C        -2.7713760507       13.6532250125       15.2141869084
  C        -1.6077944352       14.1763729467       18.9365318715
  H        -1.2999191779       12.6627922426       17.5295971514
  H        -0.5660835042       14.1325754056       16.9751175509
  H        -2.6981076363       14.5575543609       14.6515196460
  H        -2.0899461844       12.9935429768       14.6603865960
  H        -3.7685223767       13.2328773305       14.9745071734
  C        -2.6343597684       13.4753093188       19.8006734525
  H        -1.8111506421       15.1962969072       18.8401595104
  H        -0.5754276647       14.1578960862       19.3649770592
  C        -2.5904266153       13.6559237942       21.3507620563
  H        -3.6876420853       13.6753606504       19.5010230448
  H        -2.5730922490       12.4033530612       19.7633762131
  C        -1.3735566747       12.9753648244       21.9932263348
  H        -3.4679604251       13.1591169706       21.7976113944
  H        -2.6585527350       14.7578261146       21.6667921160
  C        -0.2210640740       13.9031661884       22.3718033978
  H        -1.8058502500       12.5919313113       22.9771296537
  H        -0.9915782527       12.1240171167       21.4052915716
  C         0.9603845288       13.3068637878       23.1550855260
  H         0.2796699244       14.4791201319       21.5798397310
  H        -0.6282212372       14.6514018707       22.9559245010
  C         1.4609003929       11.9550011507       22.5482095490
  C         0.4389560146       12.6009795503       24.3431721671
  C         2.1307093938       14.2493210105       23.5500112467
  C         1.0317045314       10.8289933255       23.2556978053
  C         2.0248241575       11.5730104757       21.3126233934
  C         0.4969597222       11.2444469132       24.4504015138
  C        -0.1360775626       13.2576226763       25.4766038760
  H         2.1663755903       14.8686695957       22.7204261277
  H         1.9060258936       14.8699950527       24.4610448486
  C         3.5228448263       13.5730706713       23.8506756222
  S         1.5470642255        9.3134730563       22.6012723700
  C         2.2206095324       10.2226827023       21.1783136772
  H         2.1991353783       12.3160061580       20.5540388465
  C         0.0467437652       10.6366045359       25.5944838106
  H        -0.1028787583       14.2919367811       25.3222459196
  C        -0.4308030653       12.6370455635       26.6429015747
  H         3.8585745427       13.0220502164       23.0114906494
  H         3.2589933198       12.7521780740       24.5669894985
  C         4.7316276518       14.4496121738       24.2877864219
  C         2.7416459384        9.5779032786       19.9189529761
  C        -0.4516686672       11.3006679198       26.7296534448
  H         0.2042921896        9.5660527560       25.5848987614
  C        -0.8032257728       13.0224000977       27.9307735970
  H         5.3334810289       14.0087144048       25.0903507431
  H         4.2860717596       15.3288192466       24.7313173089
  C         5.6970747659       14.8477000816       23.1395023702
  C         2.7259588633        8.1849805323       19.6294106704
  C         3.2596979276       10.4301219300       18.8359648309
  C        -0.8621619674       10.5560898110       27.9714308813
  C        -1.0991359813       11.9441832920       28.7523836567
  S        -0.9544178725       14.5535279585       28.7362106943
  H         6.3821198594       15.6720186401       23.3081393311
  H         5.0576430786       15.0916773508       22.3732598138
  C         6.6423420289       13.6406692671       22.7942263890
  N         2.1681879407        7.2535622831       20.5076329809
  C         2.8937644835        7.7178525396       18.3399759554
  C         3.4856333515        9.9586321431       17.5999868590
  H         3.4315705721       11.4975799500       18.9842639753
  C         0.2419642336        9.7763918102       28.6687151008
  C        -2.1331503800        9.7192850642       27.6044194770
  C        -1.4237705900       12.3255314381       30.0307096447
  C        -1.4830950852       13.6827201671       30.1624347005
  H         7.3560863349       13.2892063631       23.5738417821
  H         6.0992914579       12.7013851007       22.6139128490
  C         7.3749452793       13.8362976381       21.4857406779
  S         2.3020792941        5.7632902148       19.8079372724
  N         2.7751951411        6.3113000165       18.3030387160
  C         3.3688614543        8.5116913195       17.3083688872
  H         3.7293110465       10.5710644955       16.7359989518
  H         0.5905878564        8.9651810423       28.1151161676
  H        -0.2670225359        9.3644785206       29.5393521901
  C         1.5560322360       10.4718692858       29.1861137324
  H        -1.9008786158        9.1077833350       26.7646940620
  H        -2.3491092269        9.0227464223       28.3936353631
  C        -3.3741887032       10.5844500603       27.1585493578
  H        -1.5441118961       11.5985899012       30.7161159981
  C        -1.5177853838       14.3808021034       31.5146914667
  H         7.8844500046       12.9141873671       21.2129364275
  H         8.1932219867       14.5188796605       21.6387939293
  C         6.4564968224       14.2660969161       20.2968650304
  C         3.5868575034        7.9097764099       16.0173714121
  H         1.9684778994       11.0021284828       28.3176676187
  H         1.2715505173       11.2595368438       29.9410609269
  C         2.5238948755        9.4882467234       29.8094057680
  H        -3.0481178811       11.0279749934       26.2014943979
  H        -3.5412135656       11.3327631481       27.9931902346
  C        -4.6942731086        9.7435323727       27.0784161442
  C        -1.5606561837       15.7941919399       31.6994865492
  C        -1.7611288514       13.5984927190       32.7178981419
  H         6.0898301414       15.3344297690       20.2685608676
  H         7.1934069555       14.3571501752       19.4606013105
  C         5.3806450447       13.3461083830       19.8296093173
  H         3.2624623197        6.8502048008       15.9486869399
  C         3.9841798261        8.3993135317       14.8280298928
  H         2.7600995042        8.8709525034       28.9909042655
  H         2.0816870952        8.7599487840       30.4461248450
  C         3.7817971462       10.0945065081       30.4405606659
  H        -4.4410905978        9.1720918343       26.1706667141
  H        -4.8352138191        9.0460052369       27.9505201179
  C        -5.9803144304       10.6322603415       26.9057625094
  N        -1.1712565513       16.7230091715       30.7208676117
  C        -1.8723109180       16.3974019820       32.9199326415
  C        -1.9248547657       14.2512547609       33.9516756013
  H        -1.7230711422       12.5835782817       32.6986358895
  H         5.6293582824       12.3564163696       20.0695176096
  H         4.3804068226       13.4618437306       20.2326173410
  H         5.2064020643       13.4883018160       18.7422135408
  S         4.5970161259        9.9898266433       14.5310586421
  C         4.1711189080        7.5024053135       13.6592826563
  H         3.8134179414       11.1017404198       30.0152691395
  H         3.7302040390       10.2456216722       31.5391269880
  C         5.1455004258        9.5044405173       30.1877738732
  H        -5.8425283233       11.5949687478       27.2648906202
  H        -6.7389777318       10.1791471768       27.6458077514
  C        -6.5054704282       10.5286117782       25.4740448694
  S        -1.4464866103       18.2363921754       31.2973999593
  N        -1.7854822319       17.7786126997       32.8188302141
  C        -2.0281215844       15.7043361232       34.1454373579
  H        -1.9550653329       13.5487585629       34.8079761508
  C         4.9182771932        9.4280179713       12.8481544339
  N         4.7031447119        8.1258878124       12.6283218731
  O         3.8950691832        6.2500064284       13.7490802056
  H         5.8873494885       10.1056268056       30.6807653428
  H         5.2692746042        9.6107515030       29.1275110654
  C         5.2298281492        8.1267719571       30.7639463153
  H        -5.7094495939       11.1284798427       24.9224824919
  H        -6.4889243965        9.4972108060       25.0312257244
  C        -7.9096937010       11.1845083270       25.2516200666
  C        -2.2265563901       16.3289983945       35.3959297962
  S         4.9997702674       10.5310329137       11.5011743926
  C         4.6987788026        7.4477524909       11.3313024229
  H         5.5507305542        8.2021575227       31.7952668699
  H         4.3223397481        7.5861343403       30.8040793785
  C         6.3168591592        7.5307250501       29.9597536399
  H        -7.9411489779       11.8160619655       24.3520386371
  H        -7.9583717398       11.8821041051       26.0655644064
  C        -9.0203525093       10.0943902119       25.2116641843
  H        -2.2444040373       17.3858192774       35.3056465252
  C        -2.8901066134       16.0362291381       36.5314719948
  H         5.3492220935        7.9366141090       10.5690188476
  H         5.0950706242        6.4620656477       11.5289059810
  C         3.3389299751        7.3059146823       10.6327841622
  H         7.0695807877        8.2284771655       29.9604449365
  H         6.0968402114        7.5545237758       28.9206510024
  C         6.6987689072        6.1322111828       30.4933855096
  H        -9.3724801041       10.1261135158       24.2179793596
  H        -8.7772473435        9.0538377845       25.5623172057
  C       -10.1422636946       10.4546206961       26.0409082953
  S        -3.6412272063       14.5556764144       37.0239350024
  C        -2.9871451177       17.1069732886       37.5505301445
  H         2.6912736753        6.7302029973       11.2304526041
  H         2.8452668575        8.2791958284       10.7477471357
  H         3.3004748000        6.9610624739        9.6159053338
  H         7.2718847015        5.5313994243       29.7611191485
  H         5.7866154648        5.5270683151       30.7460951234
  H         7.2563364990        6.3404672502       31.4285662999
  H       -10.9330225829        9.7304541385       25.9435006366
  H       -10.5892490850       11.4101011515       25.9116864311
  H        -9.7899544289       10.4666445558       27.1016297994
  C        -3.9363666768       15.3153802790       38.5920343585
  N        -3.5934933316       16.6378512866       38.6580071113
  O        -2.3680745876       18.1837925128       37.4638555650
  S        -4.7335780823       14.6818177010       39.9082864647
  C        -3.7449967102       17.6258606244       39.8118144129
  H        -4.1447707984       18.5967487949       39.3267607480
  H        -4.5759620014       17.3406683060       40.4608788024
  C        -2.4932740314       17.7039490686       40.6570884833
  H        -2.0885208651       16.7712760479       40.8960147298
  H        -1.7213356932       18.2462952201       40.1049709166
  H        -2.7619395026       18.1581519117       41.6148611810
