352
 i =    84300, time =    84300.000, E =        24.8846197098
  H        10.0433122072        6.5696217906       32.4873277621
  C        11.1039432484        6.4311708550       32.4126059117
  H        11.6381431501        7.3450659831       32.6870063814
  C        11.4744952328        6.0172344349       30.9533644346
  C        11.4312421847        5.3975871955       33.4131000591
  C        10.5001230034        5.1031242357       30.1994773630
  H        11.8935846901        6.8956612207       30.4102685185
  H        12.3041074440        5.3755348728       31.1186303298
  H        11.1011169859        5.6774137293       34.4334182832
  H        10.9710919070        4.4487643256       33.1754359995
  H        12.5336462071        5.1807558614       33.4089660514
  C         9.7609921208        5.9582843366       29.2516671947
  H         9.7108835113        4.6903767536       30.8522273078
  H        10.9390964412        4.2249641515       29.8467446513
  C        10.5450771367        6.1676910359       27.9645647838
  H         8.7519894544        5.6225720670       29.0312383556
  H         9.4537466820        6.9290592705       29.6799574666
  C         9.8641002316        5.4300455960       26.7670050477
  H        11.5653372565        5.7486605922       28.0021404389
  H        10.7419668128        7.2075398055       27.7404587999
  C         8.5729761541        6.0845540117       26.2783795915
  H        10.5222486040        5.3166591562       25.8679483486
  H         9.6175668677        4.4336446705       27.0042059494
  C         7.5793757275        5.2809554915       25.4688397816
  H         8.0646668612        6.5190149747       27.1300225825
  H         8.9455652251        6.9777152277       25.7392257198
  C         7.2873499566        3.8707962200       26.1460486564
  C         8.1202456038        4.6206638214       24.2946331394
  C         6.3242707451        6.1005997073       25.0122632319
  C         7.5292726977        2.7901690909       25.3493939559
  C         6.7753505436        3.4226845555       27.4062262843
  C         8.1331269354        3.2558153589       24.2227738819
  C         8.5929923995        5.4029282609       23.2498262032
  H         5.9379645401        5.5626176350       24.1092123465
  H         6.5476429027        7.0460416215       24.5366950539
  C         5.2487040161        6.2477464466       26.0093785157
  S         7.2119198411        1.1901315119       26.0256989583
  C         6.6891416155        2.0429404045       27.5266506776
  H         6.4266126619        4.2180085463       28.1538062575
  C         8.5759830766        2.7111187303       23.0515553372
  H         8.3995247256        6.4890089459       23.3373084108
  C         9.0990744626        4.8257992122       22.1035467347
  H         5.2949464018        5.2691510556       26.5245232624
  H         5.3781772132        6.9242341146       26.8813446848
  C         3.8883362637        6.4923421845       25.4259214829
  C         6.3246913826        1.3780093266       28.8340949318
  C         9.0987846696        3.4619719563       21.9518816776
  H         8.4997709501        1.6587840182       22.9641172023
  C         9.5251236807        5.2276053778       20.9364253897
  H         3.5645003321        5.6814034385       24.7670044904
  H         3.8479126439        7.4689520609       24.8931414003
  C         2.8715539946        6.4036350483       26.5389357595
  C         6.4439425064        0.0242443553       29.1731786349
  C         5.7189211619        2.1850146037       29.9086517115
  C         9.3699181516        2.8260357738       20.6554673985
  C         9.7118124365        4.1704761909       20.0594252720
  S         9.8587320810        6.7896578451       20.1764846813
  H         1.8120083106        6.5999871426       26.2236927756
  H         3.1033119119        7.2829929459       27.0599052557
  C         3.0026658548        5.1495921613       27.3807569717
  N         6.8963715935       -0.9675984412       28.2774116514
  C         6.1564574173       -0.5170413038       30.3786248424
  C         5.5080788547        1.6938465324       31.1980204078
  H         5.3048957905        3.1196330348       29.6404192753
  C         8.1169997043        2.0918383792       20.0660430848
  C        10.5901095332        1.8836089134       20.8254990289
  C        10.1153336148        4.6087883698       18.7707286549
  C        10.1817677308        5.9658028992       18.6700453234
  H         3.3258531885        4.3766573115       26.7196572799
  H         3.6972015294        5.3028749896       28.1983654352
  C         1.6904202085        4.8450639504       28.0427241629
  S         6.7443773512       -2.4256834876       28.8894298137
  N         6.5294922097       -1.8646825015       30.3971156320
  C         5.7086330653        0.2736511765       31.4727129161
  H         4.9568950367        2.2788980498       31.8991158120
  H         7.8269381384        1.4150246917       20.8465518605
  H         8.4593564429        1.5292385716       19.2143339944
  C         7.1138450965        3.1529074317       19.6179018092
  H        10.8577681520        1.6339031163       19.7799695272
  H        10.3738927485        0.9886036815       21.3720410949
  C        11.8086397828        2.5832115874       21.4348411096
  H        10.2569343149        3.7953977532       18.1333905076
  C        10.4541605065        6.7349579466       17.3697956472
  H         1.6547748367        3.8163328519       28.2315251562
  H         0.8036711576        5.0748355250       27.4097789596
  C         1.4982695546        5.6222056021       29.3584039246
  C         5.3904169075       -0.2893202802       32.7165224924
  H         7.3323252136        3.5386103223       18.6202905629
  H         7.0660645521        3.9427552039       20.4117807473
  C         5.6688611676        2.6164558056       19.4905913646
  H        11.5074107943        3.1355359595       22.3225298202
  H        12.0726615326        3.4123570155       20.7741055854
  C        13.0336632848        1.7407077962       21.6890000770
  C        10.4316327583        8.1120722734       17.2117272003
  C        10.7322447616        5.8897000112       16.1873392698
  H         2.0075970817        6.5661566896       29.0821148547
  H         0.4760207337        5.9020372336       29.4969451988
  C         2.2506949293        5.0803374340       30.5567838895
  H         5.2663974476       -1.3390060298       32.6317440717
  C         5.0080488433        0.0890021943       33.9530038952
  H         4.8952304341        3.3788517976       19.7556104652
  H         5.6168659127        1.8527503961       20.3005244501
  C         5.2775791342        1.9432922326       18.1533939116
  H        12.8391021909        0.9667169690       22.3901168742
  H        13.3962250694        1.3768483267       20.7200287116
  C        14.1583254918        2.6776802823       22.3310778519
  N        10.0130441397        9.0415746703       18.1882308275
  C        10.7514689120        8.7449109751       15.9824157338
  C        10.8734995942        6.5500488168       14.9220703541
  H        10.6339049566        4.8210258496       16.1570036250
  H         2.6965832429        5.9268318976       31.1797045649
  H         1.7378837356        4.4118203085       31.2733378617
  H         3.1364722395        4.5381472771       30.2740949374
  S         4.7119330383        1.6992949699       34.5736864972
  C         5.0405489222       -0.9926426125       34.9405100256
  H         5.4963558550        2.5994108591       17.3360425126
  H         6.0360722312        1.1406926477       18.0372355079
  C         3.7789539768        1.5427104492       18.1696227741
  H        13.5935536740        3.4125151044       23.0208705995
  H        14.6229734170        3.2405374983       21.4989749725
  C        15.1576586549        1.8537799933       23.1607930685
  S        10.0427047852       10.5343094857       17.4490299038
  N        10.6584360448       10.0831677314       16.0085330108
  C        10.9896367838        8.0239805068       14.8488601316
  H        11.0638713817        5.9762167366       14.0207418692
  C         4.4517146995        0.8646094698       36.1142637197
  N         4.6874042564       -0.4538635426       36.1271519708
  O         5.4157874975       -2.1387117868       34.7466857095
  H         3.3761831251        1.5175775218       17.1467060991
  H         3.2522687352        2.3421658015       18.7586106402
  C         3.6818860273        0.1357236610       18.7500609535
  H        14.6122469451        1.3474561794       23.9490201497
  H        15.6378169848        1.1620387022       22.4761120246
  C        16.1456607038        2.8293516059       23.7231165644
  C        11.2930740342        8.7204852740       13.6499273194
  S         4.0628223370        1.7980546129       37.5914640291
  C         4.9738578959       -1.1618348242       37.3472669253
  H         4.5314355583       -0.5395524850       18.4751932476
  H         3.8431868674        0.2018506971       19.8666656590
  C         2.4180428043       -0.6446398612       18.3089521969
  H        15.7059673221        3.2554228204       24.6262730380
  H        16.1733822173        3.7015197224       23.0708463753
  C        17.4916881067        2.0977576876       23.9035309245
  H        11.6070080668        9.7274246397       13.7205683641
  C        11.8315583025        8.3652912785       12.4478324964
  H         4.4235197470       -0.8844207362       38.2677791980
  H         4.7054208246       -2.2057190602       37.2280116581
  C         6.3879771382       -1.0462946381       37.8881506348
  H         1.6287013700        0.1443793747       18.3028783308
  H         2.0379880083       -1.2914717265       19.0677244286
  C         2.5693107715       -1.5639924342       17.0570579177
  H        18.1485120639        2.6229885214       24.6386886497
  H        17.4654001526        1.0514740444       24.2001344220
  C        18.3131837447        2.2673963089       22.6646664412
  S        12.1782507564        6.8206844987       11.8389353110
  C        12.0653093496        9.4574562796       11.4739652398
  H         6.3328409044       -1.4577295430       38.8506032728
  H         7.1437724685       -1.7625285274       37.4194526252
  H         6.7782413572       -0.0508019120       38.0107591023
  H         2.4101164204       -1.0200758408       16.1128604036
  H         1.8275199326       -2.3966462096       17.0808598705
  H         3.5540378340       -2.0795480018       17.0159499762
  H        18.0089663745        1.4863697893       21.9121820909
  H        19.3960454343        2.1011051624       22.7679663357
  H        18.1539284129        3.2412216767       22.1987939398
  C        12.9069093010        7.5994618390       10.3865240588
  N        12.5740105113        8.9200202767       10.3642968487
  O        11.5626400903       10.5947525902       11.6506192061
  S        13.4965970694        6.7897100760        8.9121616663
  C        12.6862795276        9.6191867972        9.1170476550
  H        12.9342235242       10.6668408078        9.4285220252
  H        13.6278254714        9.3076284272        8.6691273708
  C        11.4229678967        9.4148578210        8.2190937654
  H        10.5643316056        9.7212116777        8.7388807728
  H        11.5686919203       10.0301655354        7.3657349518
  H        11.2764000212        8.3894056810        8.0041926071
  H        -3.1725882993       14.4715870362       16.5596035339
  C        -2.2755221696       13.8129208983       16.4491162587
  H        -2.6200820078       12.8454530496       16.7680184273
  C        -1.1260867105       14.1073007286       17.4241289857
  C        -1.8121227194       13.7499057178       14.9756919673
  C        -1.5470136559       14.3792008041       18.9321243902
  H        -0.4691448053       13.2474522451       17.3149848261
  H        -0.4578503479       14.8936267807       17.1442065509
  H        -1.1315602996       14.5657912893       14.7549062511
  H        -1.2224811979       12.8841359191       14.7896252778
  H        -2.6328487532       13.7993689885       14.2417953297
  C        -1.7309599545       13.0931994922       19.7368442572
  H        -2.4706419236       14.8775235035       18.9797605862
  H        -0.6682074325       14.8933045482       19.4223446785
  C        -2.1108013031       13.4240862635       21.1388771431
  H        -2.5373521308       12.4874600676       19.3799357258
  H        -0.8665579888       12.4688329964       19.5899065707
  C        -1.0459963723       12.8188811899       22.0565417228
  H        -3.0462639904       12.9411219191       21.2567734602
  H        -2.2751536204       14.4625251762       21.4158577266
  C         0.1723185081       13.7538986200       22.3658114424
  H        -1.4529933266       12.5950240647       23.0332012049
  H        -0.6658675843       11.8603852431       21.6510358301
  C         1.4117624815       13.2280215992       23.1142750942
  H         0.4777325318       14.2394824187       21.4316844377
  H        -0.2467001096       14.6239801263       22.8758276174
  C         1.8716608612       11.8553672323       22.4682579024
  C         1.0651977383       12.4324143888       24.3443359911
  C         2.6067433127       14.2012230780       23.2057961593
  C         1.5939418008       10.7252966320       23.2315493258
  C         2.3444328515       11.5206632292       21.1770595465
  C         1.1604289621       11.0717030060       24.4848078976
  C         0.6517961040       13.0826623697       25.5242306947
  H         2.6275485872       14.7940944577       22.3205787284
  H         2.2897601763       14.8968439108       24.0329536224
  C         3.9450709037       13.4596770109       23.6314613866
  S         1.9196487867        9.2816867174       22.3911885824
  C         2.3887224487       10.1421051762       20.9900533405
  H         2.4486449868       12.2436274383       20.3885649984
  C         0.9547926839       10.4116491308       25.6992507308
  H         0.5686137634       14.1260502496       25.4448021168
  C         0.3095559472       12.4922105095       26.7215735868
  H         4.2597287105       12.7726981838       22.8935785948
  H         3.7348079852       12.7921722073       24.4539827882
  C         5.1390262443       14.3146889216       24.0136036115
  C         2.9019679870        9.4358271084       19.7316576488
  C         0.4625317945       11.1040262184       26.7989429895
  H         1.0787238010        9.3775819219       25.7626655319
  C        -0.0565386846       12.8398942526       27.9703209486
  H         5.6357863171       13.8803114986       24.8315016706
  H         4.7596778022       15.2863416504       24.1935353132
  C         6.1639856123       14.6956045200       22.9073095993
  C         2.9160712250        8.0579532444       19.5074483053
  C         3.2482527465       10.3073054429       18.5853833286
  C         0.2109642112       10.4107711358       28.1401728221
  C        -0.0375873580       11.7767303980       28.8308297329
  S        -0.4004847426       14.3675194906       28.7786995950
  H         6.9925323733       15.2001866950       23.3945916764
  H         5.8189043641       15.3430734030       22.1753628081
  C         6.7888721701       13.4313203359       22.2334530023
  N         2.6315466089        7.1113086948       20.5366276643
  C         3.1968911924        7.4925623102       18.3097042936
  C         3.5723612637        9.6918180018       17.3425752334
  H         3.4572881723       11.3703509576       18.5904059969
  C         1.3841348525        9.5997157298       28.7444692802
  C        -1.0041448283        9.5962211929       28.2613013334
  C        -0.3111890754       12.1821258831       30.1034687710
  C        -0.6829628456       13.4648956118       30.1430317805
  H         7.3405224082       12.8797419523       22.9758463792
  H         6.0746052733       12.7839280265       21.6953068175
  C         7.7419101733       13.8007390598       21.1457467916
  S         2.8379061247        5.6536280294       19.8904920310
  N         3.1886603806        6.0878429851       18.3761804895
  C         3.5333342822        8.2003219460       17.1632816531
  H         3.8516849581       10.3346169712       16.4743423802
  H         1.6211703883        8.7741591562       28.0655912048
  H         1.1325114180        9.0614707117       29.6776916664
  C         2.7422056311       10.2941391890       28.9750583881
  H        -0.6686070215        8.6877974010       27.8498818423
  H        -1.1344224128        9.2422836419       29.2516089592
  C        -2.3039184715       10.1650223894       27.7078528656
  H        -0.4560304388       11.4266943007       30.8697896896
  C        -1.1761837791       14.2316227743       31.3443999446
  H         8.5790195333       13.0889226101       21.0436162754
  H         8.2123826075       14.7275290397       21.4080933877
  C         7.0026826946       14.1000865870       19.7690577531
  C         3.6096821927        7.4421533453       15.9598973361
  H         3.1223030510       10.5511287559       27.9784636158
  H         2.5608439437       11.2574597691       29.4613697860
  C         3.6878330829        9.3325761892       29.5994775023
  H        -2.1374416480       10.4047358469       26.6542403208
  H        -2.5303930242       11.0377362166       28.2596651676
  C        -3.4831746566        9.1472884771       27.6792713430
  C        -1.2779571767       15.6984051824       31.5041935180
  C        -1.3703357248       13.5432819625       32.6326083681
  H         6.1492159564       13.4941432502       19.6341589526
  H         6.7764724565       15.1816057292       19.6904987024
  C         7.8208387126       13.6975360873       18.5560832726
  H         3.4809906734        6.3808296846       16.0358666702
  C         3.8227077772        7.8731987404       14.6462987162
  H         3.8478301380        8.5288085245       28.9014765283
  H         3.2906925892        8.9393734839       30.5591869951
  C         5.0937429278        9.9714184223       29.8629017319
  H        -3.1355993363        8.4993316251       26.8913416720
  H        -3.5730571995        8.6726646286       28.6605993341
  C        -4.8146085760        9.7184272981       27.4007174213
  N        -1.0031622940       16.6406599019       30.4818547812
  C        -1.6296051467       16.2936820604       32.7193403856
  C        -1.6319167463       14.2063393526       33.8200296482
  H        -1.1831930779       12.4587564424       32.7313416450
  H         8.5237305236       12.8595332314       18.6436557442
  H         7.1625934001       13.4547091755       17.6601772113
  H         8.3828896678       14.5600982739       18.3473802533
  S         4.1297938433        9.4940828649       14.0788086706
  C         3.9267455102        6.8245261082       13.6183068988
  H         5.6723001661       10.0408298044       28.9457442443
  H         4.9341218030       11.0049762656       30.1190466082
  C         5.8105886083        9.2318732504       30.9989215671
  H        -5.1344747441       10.4629631486       28.1575612080
  H        -5.5220483171        8.8886138159       27.3456292637
  C        -4.7748554481       10.4720495160       26.0311609500
  S        -1.0952683906       18.1354361835       31.1415027410
  N        -1.6413263873       17.7058187004       32.6183999983
  C        -1.8810360459       15.6497656196       33.9351732107
  H        -1.5576708826       13.5891287428       34.7056108141
  C         4.3826049421        8.7545254458       12.5251385568
  N         4.3372679312        7.4112676964       12.4952571795
  O         3.7300202684        5.6557738542       13.8058104438
  H         5.0851559636        9.0043092469       31.8211488619
  H         6.5269542883        9.8494189272       31.5169843295
  C         6.4736601467        7.9446482937       30.5962498077
  H        -4.0212289234       11.3303792405       26.0074259802
  H        -4.6983116089        9.7444943969       25.2108180150
  C        -6.1474476929       11.0112716418       25.7020748188
  C        -2.0966996754       16.3714516855       35.1329059121
  S         5.1379681164        9.6752564549       11.2414991167
  C         4.5163986563        6.6081926810       11.3291003319
  H         6.8674771176        7.9157320348       29.5965954031
  H         7.4231825626        7.7359497438       31.1388243525
  C         5.5821655898        6.7264580546       30.7256540051
  H        -6.0279725516       11.5008909110       24.7442189520
  H        -6.2649322158       11.6875331854       26.5064999660
  C        -7.3039753630       10.0573993644       25.7165700251
  H        -1.8483333252       17.4367947126       35.1542050210
  C        -2.5703531864       15.9464515560       36.3436390797
  H         5.4417582450        6.9815465619       10.8186966556
  H         4.7869221652        5.5867550447       11.6714856763
  C         3.1559896222        6.6762261412       10.5588149676
  H         5.7698352429        6.1363317201       29.8098363688
  H         4.5894938699        7.1180216756       30.6531068742
  C         5.8439854785        6.0735238837       32.0836783881
  H        -7.0265476362        9.3816565471       24.9367629500
  H        -7.3718193555        9.6253597524       26.7501538182
  C        -8.6361282977       10.6660170834       25.3163046869
  S        -3.0581942860       14.3492886780       36.8266101484
  C        -2.7173456602       16.9516573702       37.3849408743
  H         2.6581861155        5.7677857848       10.5208050435
  H         2.4774891443        7.2968416728       11.1755300368
  H         3.2570599147        7.1891691564        9.5412090921
  H         5.1513062856        5.2446637347       32.2626457014
  H         5.8573172775        6.8649448478       32.8959149516
  H         6.8234420285        5.5749740072       32.1948334602
  H        -9.3730172850       10.1839402379       25.9639962657
  H        -8.8325075611       10.7003780266       24.2524397641
  H        -8.5981518563       11.7590736015       25.6374099567
  C        -3.4941317188       15.0744861992       38.3427191408
  N        -3.2201353905       16.3581963692       38.4680816222
  O        -2.3744396896       18.0972304539       37.3280085707
  S        -4.2468281521       14.1205612961       39.5610001977
  C        -3.3724953473       17.0937371307       39.6911817434
  H        -3.2412219909       18.1296668422       39.6433883825
  H        -4.3490194009       16.9357974583       40.1284109802
  C        -2.3399433121       16.7407494612       40.7417375514
  H        -2.6071286847       17.2089494611       41.6779009261
  H        -2.3069897624       15.6640827116       40.9399761156
  H        -1.3825163320       17.1084002129       40.4214815974
