352
 i =     3300, time =     3300.000, E =        38.8173448064
  H        12.2586985460        6.3992412896       32.1379593139
  C        11.6614988916        5.4372562336       32.1612673259
  H        12.3927794571        4.8446527994       31.8739754221
  C        10.5773640807        5.2654382047       31.1048413214
  C        11.2279634347        5.1323489794       33.5919450999
  C        11.1293163472        5.4975876803       29.6465746861
  H         9.9618787682        4.4335466753       31.2439212945
  H         9.9004626158        6.0611985849       31.3642369984
  H        11.5809591257        5.9825330171       34.1674271592
  H        10.1495813243        5.0575104155       33.6673794501
  H        11.7692049554        4.2401047988       34.0112125028
  C         9.9791773870        5.3989540930       28.6758960020
  H        11.9131322001        4.7459380076       29.4021630220
  H        11.5952490892        6.5221612039       29.6418797392
  C        10.4009627857        5.6548378294       27.2187813236
  H         9.5632230566        4.4270536490       28.6638485626
  H         9.2173366374        6.1040117214       29.0503674670
  C         9.4620200384        5.0797650451       26.2006200421
  H        11.4712662880        5.4899535980       27.0193151980
  H        10.1447406180        6.7623025396       26.9869480981
  C         8.1406380113        5.8315078248       26.0245749788
  H         9.9695843111        4.9904551014       25.2647900487
  H         9.4095968903        4.0609219266       26.3693304637
  C         6.9909562418        5.0576632478       25.3316293073
  H         7.8111951150        6.1679688606       26.9821670512
  H         8.2748785398        6.8132936655       25.4377942056
  C         6.7789159951        3.7060678599       25.9987062008
  C         7.5245452592        4.3955826618       24.1411901924
  C         5.6666073352        5.8079353215       25.1952173009
  C         6.9899423944        2.5916978966       25.2183977794
  C         6.4358661793        3.3183526852       27.3271654996
  C         7.4979304631        3.0177522567       23.9836147837
  C         7.9540179307        5.0637057440       23.0321676660
  H         5.9689090971        6.6824888224       24.4807701518
  H         5.4813182045        6.3229331887       26.1305161198
  C         4.4239719261        5.0788535376       24.5158387255
  S         6.6451484068        1.1659950219       26.0614702197
  C         6.2440607549        1.9999275141       27.4711210815
  H         6.1729811540        4.0572850960       28.0624075931
  C         7.7868818706        2.4353372408       22.8426972678
  H         8.0809296668        6.1064720886       23.0118619921
  C         8.3274608611        4.4163983294       21.8437992315
  H         4.7208216702        4.7234574411       23.5726245467
  H         4.2707533524        4.2273442102       25.0814666386
  C         3.1651434951        5.9861813668       24.3828361653
  C         5.7335794579        1.3797341967       28.7171119440
  C         8.2075410244        3.0975522002       21.6745612410
  H         7.7803538943        1.3379350858       22.8071618703
  C         8.6676315367        4.8726392336       20.6834492543
  H         2.5104095406        5.6250795670       23.6929145831
  H         3.5491301643        6.8498456164       24.0352262111
  C         2.5781751218        6.3679393039       25.7897173404
  C         5.6765160181        0.0064918701       28.9737767730
  C         5.1005500480        2.2632706169       29.8202603645
  C         8.6085087922        2.3641918140       20.4488726664
  C         8.8996045050        3.8144235098       19.7464283533
  S         8.9986534181        6.4173111001       19.9007187895
  H         1.8584851511        7.1917518489       25.7017404017
  H         3.3623414524        6.5788483169       26.5719912290
  C         1.8832762654        5.0680138986       26.3321372568
  N         6.0451014503       -0.9982397185       28.0627951462
  C         5.2737373717       -0.5575041204       30.1956094830
  C         4.7878809648        1.7143049715       31.0833346061
  H         4.9776009068        3.3174170713       29.7649696688
  C         7.4379556633        1.5645458013       19.7907892258
  C         9.9303729812        1.5411587623       20.6807507711
  C         9.3725749048        4.2608269496       18.5248740267
  C         9.4669228111        5.5909700466       18.4900268494
  H         1.3460282152        4.6318150255       25.5569486380
  H         2.5641773959        4.3104711653       26.6653318221
  C         1.0113843967        5.2456806799       27.5830759551
  S         5.9780482380       -2.4699590758       28.8194544749
  N         5.3911293895       -1.9882500670       30.2052497495
  C         4.8731023541        0.2234912322       31.3175894517
  H         4.2401021430        2.4019975595       31.7988800826
  H         7.2367562241        0.5360544762       20.2443401003
  H         7.8431598597        1.4417487375       18.7802959694
  C         6.3024782383        2.4603421204       19.3321405817
  H        10.1392203185        0.6828543767       20.1301447215
  H         9.8245746387        1.1438142624       21.6825539187
  C        11.1967102635        2.4305245086       20.6803884177
  H         9.5735209623        3.5479932048       17.6807818537
  C         9.8336020127        6.2850666144       17.2768778359
  H         0.1966653161        4.5129156842       27.5110422774
  H         0.2768781022        6.0601989507       27.3900215757
  C         1.7186125457        5.4319443106       28.9198218591
  C         4.6064493069       -0.3685860375       32.5954893394
  H         6.6443138518        3.2493786194       18.6538698335
  H         5.8744286271        2.8469367829       20.2760466579
  C         5.2829890081        1.5723694963       18.7894877458
  H        11.1701437930        3.3779059779       21.2203191470
  H        11.5936692105        2.6701754461       19.7069951923
  C        12.4345746581        1.6676194044       21.1384549018
  C         9.8769399094        7.7333037575       17.0239453244
  C        10.1370532352        5.4502854684       15.9840196890
  H         2.4084263525        4.5877854715       29.0706630668
  H         2.2708654572        6.3546714863       28.8894770611
  C         0.7632780839        5.4893463972       30.1674676969
  H         4.7259808687       -1.5125412209       32.5120646444
  C         4.3542545640        0.0763020818       33.8804809561
  H         4.6399879894        1.1557023200       19.5961098427
  H         5.8121752819        0.7877834298       18.2540080489
  C         4.3666086999        2.3174564276       17.8389391229
  H        12.2083907924        0.8039434430       21.8384162144
  H        12.9191375813        1.1596942895       20.3078108394
  C        13.5112132049        2.6488197560       21.6980577326
  N         9.3419633180        8.7164984636       17.9065221920
  C        10.3428594614        8.3368807553       15.8230944160
  C        10.5086716907        6.1025671465       14.8149911808
  H        10.1654378189        4.3547701049       16.0547367860
  H         1.1206524942        5.9735919527       31.0163452675
  H         0.0079535683        6.0369441898       29.8720977280
  H         0.3479581814        4.4850945662       30.4150295344
  S         4.2290551967        1.7257577234       34.4323012260
  C         4.2940620557       -0.9672749319       34.9989342414
  H         4.4667548715        3.3995214629       18.0247370185
  H         4.7931647994        2.2283112923       16.9053330747
  C         2.8739635739        1.7766336803       17.7489638276
  H        13.1441104696        3.4359865128       22.3062810480
  H        14.0481016574        3.1968236381       20.8764761953
  C        14.5233691281        2.0110776857       22.4922836993
  S         9.9002218587       10.1809807014       17.4171542310
  N        10.2713855375        9.7390347617       15.8844487468
  C        10.7700452522        7.5993732109       14.7210629741
  H        10.9217501013        5.5275473508       13.9534940552
  C         3.9992791708        0.9970754282       36.0978254565
  N         4.1513861868       -0.3402841501       36.2349659882
  O         4.2734636699       -2.1523407081       34.6305176819
  H         2.0755543812        2.4750742636       17.4304658137
  H         2.6000164851        1.8048246769       18.7740994517
  C         2.7602478287        0.3086257649       17.2903816757
  H        14.1057402680        1.5253907024       23.4452144130
  H        14.9517974742        1.1436592736       22.0020741175
  C        15.7281084743        2.8614538969       22.9396420929
  C        10.9033593512        8.2461547096       13.4968282849
  S         3.5931751437        1.9712739736       37.4856560148
  C         4.0772023472       -1.1342273592       37.4894787603
  H         2.0667285019        0.3042657749       16.5016806504
  H         3.7421436008        0.1525165693       16.7790686658
  C         2.3624758659       -0.7285277856       18.4443326633
  H        15.2780766901        3.3158138229       23.8011406190
  H        16.1350968356        3.5139337287       22.2069326211
  C        16.9562614295        2.0929266445       23.4156525029
  H        10.5643578928        9.2202353607       13.5547846565
  C        11.5099230527        7.8448180186       12.2737130870
  H         3.5237753990       -0.7511467477       38.3206263962
  H         3.6260638141       -2.0264627656       37.1837165356
  C         5.4402686134       -1.3839135389       37.9451254802
  H         1.4530252824       -0.4621999368       18.9997015944
  H         3.2277797333       -0.7691029045       19.1103850982
  C         2.0055897824       -2.1366895847       17.8106908526
  H        17.5137339910        2.5217367752       24.3116274548
  H        16.6344367188        1.0824399392       23.7388841536
  C        17.9570595747        1.9677288178       22.2508084483
  S        12.0641382596        6.3266664803       11.7738386070
  C        11.3665500111        8.9066199377       11.2391103089
  H         5.4523765056       -2.2787249544       38.5582945550
  H         6.2261475049       -1.6297198007       37.2184414075
  H         5.8929093198       -0.5531608415       38.5409735100
  H         2.4167072704       -2.5639318946       16.8162273508
  H         0.8776549624       -2.3837431186       17.6993184631
  H         2.0990148597       -2.9091231694       18.6773917401
  H        18.9876530167        2.0689830858       22.5795917881
  H        17.7593215429        2.7137971793       21.4107151107
  H        17.7875997918        0.9874365793       21.7627066692
  C        12.2388020188        7.1513043075       10.2201389359
  N        11.9685226314        8.4785498067       10.1454789610
  O        10.9839897438       10.0481722134       11.4628482850
  S        12.6450111720        6.2678650220        8.7159402025
  C        12.1184032707        9.3185553745        8.9211658052
  H        12.2131262884       10.3858203358        9.0273595419
  H        12.8898191200        8.9106669977        8.2427059088
  C        10.8744582372        9.3022983549        8.0519733087
  H        10.1299419782        8.5558090180        8.4013452292
  H        10.4622147811       10.2452627938        7.9971878343
  H        11.1402168503        8.9873791803        7.0368143426
  H        -3.7644914281       12.6623269342       16.4149304467
  C        -2.7065355405       13.1060974744       16.3826458335
  H        -2.0257854722       12.2165762668       16.4157475439
  C        -2.2022380799       13.9674394010       17.5374217636
  C        -2.6752964147       13.7862276400       14.9741288136
  C        -2.5280192448       13.2696163208       18.9413400056
  H        -1.1295946075       14.2509708887       17.5532495438
  H        -2.8341843430       14.9105410235       17.4533720280
  H        -3.1640451525       14.7303840738       14.9785946312
  H        -1.5792699217       14.0370251796       14.7917166440
  H        -3.1836013169       13.3114988691       14.1238735475
  C        -1.5955840088       13.7147780364       20.0642757055
  H        -2.6647926644       12.2047763815       18.9539301807
  H        -3.5475466396       13.5608145221       19.2788154952
  C        -2.1723100455       13.3610336775       21.4341260111
  H        -0.7481592161       13.1012119018       19.8885572788
  H        -1.4939539348       14.7943053872       20.0891098921
  C        -1.0448259328       12.8195237669       22.3934089738
  H        -2.8897651582       12.5674467172       21.2508745872
  H        -2.7576922104       14.2680522060       21.8398968402
  C         0.2528368750       13.6392581363       22.6281050995
  H        -1.6842363208       12.8143740410       23.3116102931
  H        -0.8655865262       11.7464919247       22.1063990303
  C         1.2915284906       12.7971456193       23.4398618197
  H         0.7243549850       14.0153054840       21.6871876012
  H         0.1536557933       14.5239900849       23.2310498260
  C         1.5242429710       11.4720076899       22.6850788417
  C         0.7707085884       12.1465752275       24.5919202415
  C         2.5711792247       13.6320954804       23.6077668421
  C         1.3165307282       10.3636913932       23.4968953247
  C         1.9603945089       11.1631631521       21.3746900810
  C         0.7461433116       10.7785826370       24.6972819851
  C         0.3123382819       12.7951713092       25.6940033045
  H         2.7913482616       13.9443535289       22.6273168137
  H         2.2145506797       14.5060501587       24.1272828932
  C         3.7912385821       12.9356718083       24.2359538458
  S         1.5201145808        8.9118700028       22.5993767621
  C         1.9655121816        9.8171262849       21.1820335475
  H         1.9434863875       11.9118179267       20.6380093467
  C         0.2055884883       10.2594598069       25.8203961207
  H         0.4438666738       13.7795707028       25.6336143933
  C        -0.2557955235       12.2030415263       26.8260483050
  H         4.0955433601       11.9809373424       23.7686409599
  H         3.4973241109       12.6184746202       25.1714965557
  C         4.8783492339       13.9406017765       24.1996426903
  C         2.3444524072        9.0457817179       19.9409302026
  C        -0.2249687091       10.8877680501       26.9929609740
  H         0.2247572219        9.2378552866       25.8515877071
  C        -0.8090213400       12.6204253639       28.0280100680
  H         5.5540053688       13.6736322125       24.9049688559
  H         4.5035984541       14.9879352180       24.5066859929
  C         5.6158267180       14.2101543393       22.8656455425
  C         2.3948593433        7.6502875784       19.7727956297
  C         2.8708375593        9.9035284159       18.8248813998
  C        -0.8038386658       10.2304017835       28.2396147651
  C        -1.1660830142       11.5793509561       28.8599859045
  S        -0.9928768081       14.1464230775       28.7470448961
  H         6.2191805141       15.0967118057       22.9886882090
  H         4.9252352706       14.5825950075       22.0776400729
  C         6.5412266610       13.1504753731       22.4484904906
  N         2.2690422841        6.6906315499       20.8108907049
  C         2.7331605824        7.0811032909       18.6162928434
  C         3.1759327881        9.2705317441       17.5916794158
  H         2.7256435396       10.9835209534       18.7854236252
  C         0.0966550077        9.3845018901       29.0801984674
  C        -1.9940168351        9.2347984666       27.9899120363
  C        -1.6119609323       12.0150104730       30.0833884035
  C        -1.5017318602       13.4246887489       30.2446699915
  H         7.2740162321       12.8661429221       23.3252612582
  H         6.0654999539       12.1731243495       22.1472045466
  C         7.2391334700       13.5595035954       21.1931242039
  S         2.1924622635        5.1934942091       20.1609439271
  N         2.5715118959        5.6531775684       18.6203811477
  C         3.0412701635        7.8127123074       17.4359669747
  H         3.2779694870        9.9141328896       16.7409006446
  H         0.5535895944        8.6476860216       28.4288375020
  H        -0.4801107987        8.8461298820       29.8586756591
  C         1.2248844980       10.1695231023       29.7373287421
  H        -1.8217308585        8.5553869461       27.2028631577
  H        -2.2437688454        8.7760006644       28.8824077014
  C        -3.2278177728        9.9692239112       27.4324166088
  H        -2.0498082198       11.3020261280       30.7595348974
  C        -1.8286764243       14.2932170093       31.4404909780
  H         7.8019446356       12.6907474697       21.0313998663
  H         8.0584164618       14.2259950724       21.3328005373
  C         6.3697285468       13.7524815984       19.8851686001
  C         3.0844046936        7.0818268599       16.2554794068
  H         1.5581436878       10.8490873911       28.9670818331
  H         0.8093395570       10.7018710549       30.5451393098
  C         2.3387098587        9.2625703124       30.0800323153
  H        -2.9539191534       10.5592170500       26.5841438775
  H        -3.6174276083       10.7284819929       28.0655357738
  C        -4.4712290393        9.1281097357       27.0488397624
  C        -1.8148007474       15.7241252269       31.6157677613
  C        -1.9564531702       13.5399815193       32.7318115940
  H         5.6251232357       12.9678165488       19.8911231574
  H         5.6185453058       14.6261837164       19.8117027714
  C         7.2350716418       13.6098136660       18.6289413294
  H         2.9002067761        5.9970759184       16.1525675423
  C         3.5088914621        7.4677266331       14.9940703727
  H         2.6777544138        8.7773257039       29.1466282506
  H         2.1239592928        8.5063907955       30.8103821401
  C         3.5350308011       10.0427602253       30.6370188259
  H        -4.0799664454        8.3017121863       26.5603803628
  H        -5.0999424148        8.6261305387       27.8343064405
  C        -5.4545742789        9.8288715156       26.0833868809
  N        -1.6254895496       16.6684565312       30.6194456759
  C        -2.1456903965       16.2376030557       32.8015125407
  C        -2.2324521080       14.1368731564       33.9090313479
  H        -2.1512156938       12.4841766629       32.8090906981
  H         6.4687700655       13.3516176568       17.8988558797
  H         7.7480821500       14.5053749780       18.3020235211
  H         7.9336172611       12.7770620965       18.8063921441
  S         3.9324210851        9.0809862389       14.3813444539
  C         3.5610920048        6.4164611433       13.9239585118
  H         3.7064469579       11.0821841658       30.0823613495
  H         3.3094035735       10.3090156362       31.6760543433
  C         4.9276726523        9.2689481127       30.7425080848
  H        -5.6310303260        9.5109033915       25.0606301741
  H        -5.0613765204       10.8113797518       26.0009477385
  C        -6.8955465276        9.9254069328       26.6481013618
  S        -1.7619435550       18.1774599755       31.3041595515
  N        -2.1815201441       17.6671797408       32.7652130585
  C        -2.3279390376       15.5687505958       34.0157253415
  H        -2.3391287080       13.5391452167       34.7451150504
  C         4.0815958902        8.3139561205       12.8367080728
  N         3.9029555113        7.0091357208       12.7969793942
  O         3.1877370545        5.2614467161       14.1383375282
  H         5.6042509890       10.1185729352       31.0663786156
  H         5.1054512058        8.9683316989       29.7366433061
  C         4.9773061611        8.1427582968       31.7283164951
  H        -7.3064317984        8.9061916816       26.8599119887
  H        -6.7007672307       10.4105539321       27.6807024765
  C        -7.7562717413       10.7865941705       25.6107335646
  C        -2.5907939513       16.3229842082       35.2352886762
  S         4.4871434621        9.2098276514       11.3663206298
  C         4.0089738865        6.3314780192       11.5294415006
  H         5.8385137765        8.1831353965       32.3421095367
  H         4.1659307746        8.2243764134       32.4873113350
  C         4.8976478067        6.7997528750       30.9075846731
  H        -7.1363930837       10.8745105268       24.7353565614
  H        -7.9708811397       11.7680175749       26.0284267233
  C        -9.0811146740       10.1320387430       25.2129670623
  H        -2.4287406691       17.3935175958       35.2708303275
  C        -3.0940571101       15.9183642896       36.4252321654
  H         4.7008792376        6.6966877688       10.7931596563
  H         4.2289400907        5.3222655485       11.6933199065
  C         2.5163417882        6.2395665159       10.8781613749
  H         5.9547018429        6.6510676779       30.5601945119
  H         4.2015655488        6.8481261680       30.0719952479
  C         4.3933815881        5.5771178846       31.7226472490
  H        -9.4146408271       10.6228658103       24.3315828245
  H        -8.9296638314        9.1539365579       24.7469169220
  C       -10.1282948560        9.9376058123       26.3687218275
  S        -3.4523878111       14.3118102910       36.9205090315
  C        -3.3935218016       16.9404953395       37.4390562843
  H         2.3902557870        7.1483795801       10.3890932084
  H         2.4876642189        5.4028496956       10.2007855937
  H         1.6166930467        6.0347844902       11.5522255503
  H         4.1641907385        4.5653247714       31.2063893290
  H         3.3594947221        5.8002237109       32.0100914549
  H         4.9360548660        5.3572106284       32.6625206417
  H        -9.6597879894        9.3438051143       27.1121100708
  H       -10.9858318693        9.5326405746       25.8107931051
  H       -10.3928173396       10.8832649682       26.8873409148
  C        -4.1261755653       15.0831626459       38.3714752303
  N        -4.0286810779       16.4133018620       38.4796689391
  O        -2.9850300316       18.1069864851       37.3869481406
  S        -4.8438751561       14.2455632362       39.8034381674
  C        -4.2467340822       17.2322304739       39.5643744502
  H        -4.1922675129       18.3336488142       39.4272801691
  H        -5.1393663592       17.0426530430       40.0023983208
  C        -3.1460511626       17.0510310909       40.6700083502
  H        -3.0448775613       15.9843625979       40.8255632036
  H        -2.2343882709       17.5030742726       40.3975320672
  H        -3.3845982962       17.3368377680       41.6127044501
