352
 i =    64900, time =    64900.000, E =        24.9814267679
  H        10.4898094208        4.9451420166       31.3727060449
  C        10.6811572208        5.9138273594       31.7488906974
  H         9.7275518717        6.3757362055       31.8907603047
  C        11.3795852855        6.7105267352       30.7024007758
  C        11.5196827894        5.8307916548       33.0237960912
  C        12.2311263910        5.9684634124       29.6843588683
  H        10.5053968523        7.2569816426       30.2532174849
  H        11.9119951114        7.4251247184       31.2939170999
  H        11.6109642332        4.7865366947       33.4112361452
  H        12.5494070240        6.1991048621       33.0263006617
  H        10.9374560176        6.4262273446       33.7764713470
  C        11.4674830847        5.1341378489       28.6287787720
  H        13.0489856399        5.4115367737       30.1268757566
  H        12.7850474945        6.7292796291       29.1129994640
  C        10.5442153785        5.8238394506       27.6546424698
  H        12.2483996918        4.5652279716       28.1153125388
  H        10.8815271202        4.3565002338       29.1168768332
  C         9.8997314114        4.9589430770       26.5311164257
  H        10.9571476829        6.7264440368       27.1956612844
  H         9.6821444863        6.1464967932       28.2103643968
  C         8.6648024814        5.6353950977       26.0218774325
  H        10.7561385439        4.8373219206       25.8379016102
  H         9.6367921277        3.9430774915       26.9278285049
  C         7.5766315998        4.7554577175       25.2258907650
  H         8.1873937824        6.1355608449       26.8044008240
  H         8.8790284248        6.4468431733       25.3100089507
  C         7.3294980951        3.4525648549       25.9819585983
  C         8.0971079028        3.9525592431       24.0230908369
  C         6.3429026300        5.5814155064       24.7926488200
  C         7.5251224877        2.3244529983       25.1980732278
  C         6.7883327599        3.1344821883       27.2636105147
  C         7.8801876508        2.6495193231       23.9598576751
  C         8.5084036044        4.6267473173       22.8480091558
  H         5.7426975589        5.0479808532       24.0705354589
  H         6.6910502874        6.3981408468       24.1487589216
  C         5.3991423269        6.0106807778       25.9490301320
  S         7.0392521646        0.9519628188       25.9721207617
  C         6.5320920410        1.8398543001       27.3597342868
  H         6.5124142357        3.8720655348       27.9853126692
  C         8.1632769276        2.0371029138       22.7807984363
  H         8.6334646093        5.6956856317       23.0085577134
  C         8.7911327990        3.9778860864       21.6519570230
  H         5.6749002828        5.3826688023       26.7744112741
  H         5.6180349009        7.0602235074       26.2455210191
  C         3.8816705558        5.8825592794       25.5203652964
  C         5.9618186076        1.2048752146       28.6164644299
  C         8.6289219736        2.6399449062       21.5529019712
  H         8.1150163187        0.9142109724       22.7599629152
  C         9.1142691436        4.3600015035       20.4038948465
  H         3.6622896304        4.9295940104       24.9799577751
  H         3.6704766769        6.7008177826       24.7731125704
  C         2.9036223075        6.0077961688       26.7238068869
  C         6.0810535108       -0.1409637070       28.9310118625
  C         5.4756782490        2.0667214318       29.7182506663
  C         8.8323877097        1.8573199079       20.2228032100
  C         9.1408103481        3.3019347356       19.5128063608
  S         9.4262062103        5.8454865503       19.6874092142
  H         1.9795799746        6.4955583386       26.2637992207
  H         3.1497248150        6.7075850891       27.5278035043
  C         2.2161196960        4.7036546789       27.0258116980
  N         6.5798483100       -1.2019359760       28.1157898694
  C         5.7348041660       -0.6665301301       30.1636700067
  C         5.3383968220        1.5921354933       30.9682500403
  H         5.3796710514        3.1270860739       29.5685149218
  C         7.4894948885        1.2261697207       19.7945640492
  C         9.9798190416        0.9301110900       20.2118307670
  C         9.3897464110        3.7259408979       18.1783791188
  C         9.7018090728        5.0697117500       18.1622137415
  H         1.4547470816        4.5283020288       26.3223271511
  H         2.8559711551        3.8750488299       27.0586656006
  C         1.4574920855        4.8844946058       28.3191900694
  S         6.5931647176       -2.5636936885       28.9038172694
  N         6.0660145545       -2.0185411922       30.3107293962
  C         5.4319104192        0.1307199097       31.2652504435
  H         4.9492823315        2.1992881755       31.7363696079
  H         7.0196638950        0.6747312817       20.6269969888
  H         7.6692653590        0.4754581430       19.0141187155
  C         6.5697506450        2.3449238151       19.0783050451
  H        10.2073788006        0.6808103921       19.2094528358
  H         9.7334651736       -0.0726519563       20.6453976835
  C        11.3330943291        1.4349366660       20.7651324595
  H         9.4952961852        2.9764609298       17.3573920662
  C        10.1126790198        5.8781111973       16.9768548654
  H         0.6457778735        4.1802518919       28.5058832940
  H         1.0124435874        5.8879755780       28.3196079766
  C         2.5170245555        4.8144790200       29.4260475954
  C         5.1153561417       -0.4132227273       32.5300071969
  H         6.9453359538        2.6887450352       18.1040187734
  H         6.3972099944        3.1671923683       19.7149057292
  C         5.1921733315        1.8332744574       18.7707245399
  H        11.2321014191        1.8334978461       21.7870433500
  H        11.5743159216        2.3391737079       20.2274650741
  C        12.4596972471        0.3878660233       20.7455593696
  C        10.3329641123        7.2519691858       16.8864502365
  C        10.2268080316        5.1465807362       15.6537958555
  H         2.9433246686        3.8415293016       29.5355234941
  H         3.3335293383        5.3986282792       29.0472308268
  C         2.0242933386        5.2087927505       30.8241782785
  H         5.5517808037       -1.3927132912       32.5697066371
  C         4.7455548829        0.0541789009       33.7993737467
  H         4.7180915526        2.6552739064       18.2543876380
  H         4.5984827126        1.6365212434       19.6867753097
  C         5.1206934708        0.6717388133       17.8481686589
  H        12.3507615914       -0.3752650754       21.4894061409
  H        12.3686496933       -0.2034804122       19.8323490059
  C        13.8146164969        1.0229804476       21.0053097070
  N         9.9856928697        8.2450728160       17.8288721473
  C        10.6846642732        7.8491395455       15.7202394499
  C        10.5033633877        5.7503027973       14.4255813223
  H        10.0434178161        4.0934483958       15.6921330434
  H         2.8582595935        5.0507460238       31.5684344656
  H         1.8013905756        6.2560849810       30.9886928192
  H         1.1087584787        4.6554070715       31.0891111498
  S         4.3944156947        1.6991473148       34.1986195447
  C         4.8104267366       -0.8356239394       34.9220804861
  H         5.7472321163        0.7718614207       16.9108326381
  H         5.4400272788       -0.1842566479       18.4616210146
  C         3.7570138080        0.3026794615       17.2621452851
  H        13.8987341252        1.8243334122       20.2620047574
  H        14.6438410001        0.3379524801       20.6510716830
  C        14.0995749395        1.5036248144       22.3723900392
  S        10.1532968506        9.7085548539       17.2230623189
  N        10.7360859438        9.2492468131       15.7939757471
  C        10.8083752269        7.2062642346       14.4242001381
  H        10.3521311975        5.1731549646       13.4617447705
  C         4.2075391082        1.0637321044       35.8586439037
  N         4.4330444341       -0.2341615985       36.0412596371
  O         5.2111982473       -1.9948400237       34.7820467114
  H         3.8837061247       -0.0735619984       16.2766579437
  H         3.0906944397        1.1627499826       17.1705014932
  C         2.9618667599       -0.6156583569       18.1443625784
  H        13.3236891118        2.1113922540       22.7415526157
  H        14.1617939916        0.6794973705       23.0144033502
  C        15.4378655861        2.1777179852       22.4221960760
  C        11.0788162547        7.9993751320       13.2827821689
  S         3.7313988570        2.1693461425       37.1965339191
  C         4.4224124939       -0.8887032713       37.3748609998
  H         3.3376303055       -0.4341115482       19.1723786041
  H         1.8997724736       -0.4504449774       18.0879559443
  C         3.1765913387       -2.1264417926       17.8808405627
  H        15.3289042832        3.1764886729       22.8541747378
  H        15.8424958985        2.3148954110       21.4017144373
  C        16.4477910615        1.3122429017       23.2152414869
  H        10.9236311910        9.0672920322       13.4630468099
  C        11.6119918249        7.6947400703       12.0349271136
  H         3.8202495318       -0.4072228302       38.1173611530
  H         3.9826982819       -1.7957557765       37.1292623136
  C         5.9214125891       -0.9165748524       37.9167486066
  H         3.4238235678       -2.5758514054       18.8486424692
  H         4.0521091035       -2.2452155829       17.2790395083
  C         1.9192669151       -2.9635742553       17.3633359092
  H        16.2591163892        1.5214845609       24.3353076083
  H        16.5612578869        0.2550410913       22.9228613415
  C        17.8305842516        1.8870154808       22.9760862159
  S        12.1357970094        6.1421319737       11.5052599713
  C        11.8505310884        8.8344747633       11.1033953708
  H         6.2222748184       -1.8545344645       38.3791283034
  H         6.6255010085       -0.9073330942       37.0502347337
  H         6.0958210259       -0.0453405657       38.5098964250
  H         1.2590852111       -3.1901210044       18.2384897289
  H         2.2920551868       -3.9023327208       17.0002705134
  H         1.2678683982       -2.5595115159       16.6095863046
  H        18.1016251410        2.3246827222       23.9513101800
  H        17.8198616879        2.7558532946       22.3258123495
  H        18.5397174149        1.0873697502       22.7278919173
  C        12.6334579265        6.9576052947       10.0353625480
  N        12.4443885780        8.2832404703       10.0359150078
  O        11.5243380369       10.0291770093       11.2549726784
  S        13.1594590936        6.0802343495        8.6729453394
  C        12.6778553462        9.1104815285        8.8665054274
  H        12.9257115986       10.1374248465        9.1552788561
  H        13.6160237410        8.8089438489        8.4198995453
  C        11.5527342679        9.0661816421        7.9223244822
  H        11.7493826629        8.2482423826        7.2698286209
  H        10.5724612700        8.8364889195        8.3361170873
  H        11.3093413273        9.9753616223        7.3093688054
  H        -1.5280312030       12.3022135980       17.2278942843
  C        -1.8178459089       13.2806942252       17.0555354443
  H        -1.0069504989       13.9509076121       17.4457549483
  C        -3.1957458740       13.5945357122       17.7536364388
  C        -2.0120717616       13.3880689215       15.5176786463
  C        -3.0475156346       13.8614379497       19.3085472954
  H        -3.6716554894       14.4934183248       17.3342368557
  H        -3.9161358071       12.8354423381       17.5689309007
  H        -2.5390836086       14.3571370826       15.2859479485
  H        -0.9818167319       13.4981019114       15.0792139955
  H        -2.4072450470       12.4591013860       15.1181389900
  C        -1.9710624779       13.0066818374       20.0767412405
  H        -3.9595458331       13.6921237669       19.8526596196
  H        -2.8311067616       14.8872688909       19.5377005670
  C        -2.5081248869       12.8310131762       21.4885079559
  H        -1.9127657346       11.9886713356       19.6841562664
  H        -0.9730177587       13.3385492724       19.9687830591
  C        -1.4741720404       12.0398170015       22.3584141248
  H        -3.4390165083       12.2746058984       21.4601446410
  H        -2.6887574031       13.7424697708       22.0202188466
  C        -0.2688243114       13.0136307792       22.7074141566
  H        -1.9698296701       11.7508140196       23.3071941438
  H        -1.1494824288       11.1565363460       21.8631239932
  C         0.9178008678       12.3464549783       23.3648974329
  H         0.1231430231       13.5818845064       21.8286885310
  H        -0.8043552855       13.7320161918       23.4400944939
  C         1.3450176400       11.0336251157       22.6796118502
  C         0.5838019972       11.6170459864       24.6231727973
  C         2.1065105099       13.3506478291       23.5879845163
  C         1.1742012938        9.9119020379       23.4816093078
  C         1.7878538665       10.6988450155       21.3883805882
  C         0.5550070238       10.2429845606       24.6511967798
  C         0.2086640329       12.2971057260       25.7791783939
  H         2.2188742376       13.7874756300       22.6011390002
  H         1.8339139151       14.1510629207       24.2434905084
  C         3.3846769084       12.7056111974       24.0515192581
  S         1.7112009520        8.4473194949       22.7230342672
  C         2.0875139404        9.3088140841       21.2872825888
  H         1.8779087176       11.4348348054       20.6970493503
  C         0.1331424690        9.6854373413       25.8596379472
  H         0.1859946855       13.4059377688       25.7985484949
  C        -0.0759942058       11.6941166981       26.9546645874
  H         3.7887350477       12.0324109555       23.2076951185
  H         3.2170007885       12.0991315824       24.8982501827
  C         4.5050986608       13.7433113198       24.2905031084
  C         2.6798046556        8.6280786931       20.0808720508
  C        -0.1548399016       10.3574169903       27.0364857843
  H         0.1874923108        8.5948204256       25.9385247312
  C        -0.3463412904       12.1395542244       28.2293363121
  H         5.2075990891       13.2871724061       25.0713249215
  H         4.2321522042       14.6747805396       24.7584195834
  C         5.2691175982       14.1089923568       23.0734362840
  C         2.6159587211        7.2195684214       19.7404449611
  C         3.2477503948        9.4292451607       18.9135614253
  C        -0.4575929026        9.7077022091       28.3132455466
  C        -0.6907998441       11.0849316303       29.0388275901
  S        -0.6494529408       13.7212609038       28.8427145509
  H         5.7201954001       15.0402068756       23.1820482544
  H         4.6558731562       14.3015779823       22.2541122076
  C         6.4522561471       13.1163387616       22.8034801445
  N         2.1973763826        6.2200935173       20.6303614056
  C         3.0279883020        6.6837567771       18.5255616389
  C         3.2963190711        8.9583145011       17.6182195431
  H         3.2684520408       10.5196585002       19.0755881462
  C         0.6585792319        8.9164358512       29.0119810191
  C        -1.8172673974        8.9779548762       28.2920432491
  C        -1.0721795920       11.5273675273       30.3211914075
  C        -1.1063978783       12.9322777286       30.3358180697
  H         7.2839857670       13.2006149082       23.5564853620
  H         6.1389092801       12.0459949378       22.7546690601
  C         7.1441165110       13.2718622958       21.4411481344
  S         2.3499534777        4.7306868242       19.8555673601
  N         2.9807026842        5.2882346990       18.4821823112
  C         3.3372811093        7.4868014761       17.4102574942
  H         3.4624225621        9.6399643476       16.7908099939
  H         1.0069248861        8.0574219954       28.4396354444
  H         0.1733901733        8.4931181972       29.9484128336
  C         1.9900932241        9.6524963384       29.1918680163
  H        -1.7613594195        8.1825112968       27.5482064105
  H        -2.1599777697        8.5535837296       29.2778237343
  C        -2.9035239331        9.8354166549       27.6968197305
  H        -1.2797318991       10.7284287757       31.0353891288
  C        -1.4147133118       13.7523821592       31.5606246979
  H         7.9243529824       12.5541513809       21.1968293902
  H         7.7156298802       14.1843013158       21.4224160788
  C         6.1236214032       13.1840662155       20.2640652879
  C         3.4474408153        6.8570171891       16.1617468760
  H         2.1976240930       10.0066440254       28.1949240657
  H         1.7202337055       10.4525236453       29.8870312883
  C         3.1149309245        8.8239572810       29.7596996967
  H        -2.5621020437       10.2208023085       26.7705490853
  H        -3.2633806086       10.5648589244       28.4365300959
  C        -4.0998236796        8.9676425505       27.4108649138
  C        -1.4917883097       15.1617913528       31.6801720307
  C        -1.7354689806       13.0342794678       32.7958186852
  H         5.3806205927       12.4118471799       20.4481296586
  H         5.4734664881       14.0922973225       20.2923300884
  C         6.7919158804       13.0797152858       18.8440499388
  H         3.1002673235        5.8174949569       16.2064214790
  C         3.7267137456        7.3101443567       14.8677033205
  H         3.6694931178        8.3955587642       28.9178946952
  H         2.6533178613        7.9766615448       30.2345718809
  C         4.0878495730        9.5126818561       30.6868323785
  H        -3.8719143916        8.0909062482       26.7283242403
  H        -4.4465465700        8.5691759591       28.3711914190
  C        -5.1927897940        9.7492108162       26.6853802481
  N        -1.3643943058       16.0813651786       30.6335379187
  C        -1.7647113082       15.8274880019       32.8734286260
  C        -2.0351996326       13.6641486707       33.9773981663
  H        -1.9466301755       12.0025296948       32.7323403302
  H         7.1936347803       14.0250284812       18.5291705647
  H         7.6072095745       12.2475875287       18.6080576564
  H         6.0491427912       12.8918231872       18.0698176235
  S         4.2641397489        8.8735153834       14.3678960090
  C         3.7381487659        6.3138882605       13.7868308749
  H         4.1671323199       10.6103369334       30.4965032001
  H         3.7351100247        9.3694938758       31.6927005867
  C         5.4214839856        8.8136453278       30.7161916998
  H        -4.7079973516        9.8689727261       25.7315495519
  H        -5.3568796148       10.7530552477       27.1394886016
  C        -6.4767899837        8.9301263167       26.4795699456
  S        -1.2707702801       17.6239022061       31.2086185032
  N        -1.6416333280       17.2026931107       32.7319140292
  C        -2.0477333425       15.1992772170       34.0741350203
  H        -2.2495227239       13.1300866745       34.8499577488
  C         4.5003583775        8.2236476052       12.7488717098
  N         4.0676843608        6.9489347747       12.6079886617
  O         3.4710165423        5.2040486853       13.9668946553
  H         5.9382506112        9.3982005003       31.4814614704
  H         5.9235950863        8.9609556262       29.7788258018
  C         5.3428388095        7.3549750046       31.0195486347
  H        -6.3190370189        8.2461384158       25.6518035550
  H        -6.7627631122        8.3937464788       27.3959611761
  C        -7.6661833639        9.8912096922       26.0966073416
  C        -2.4651594955       15.9326780912       35.2687530889
  S         5.0265299873        9.2046834535       11.3399491817
  C         4.2474221697        6.1826514194       11.3504778778
  H         4.8384689645        7.1551562370       31.9146390533
  H         4.7126911635        6.8727067399       30.1993967571
  C         6.7392937567        6.7438143033       31.3403580054
  H        -7.3827162343       10.3610590616       25.1660815377
  H        -8.0480036395       10.6199990277       26.8512646103
  C        -9.0598266993        9.2963887130       25.7891556674
  H        -2.5520806423       17.0348341008       35.1691907962
  C        -2.8095421064       15.5218189915       36.5420971077
  H         4.8756280858        6.7290320183       10.5779498402
  H         4.7915152243        5.3113591802       11.5938696932
  C         2.9423605509        5.9452358912       10.7328632555
  H         6.5582004636        5.8390392636       32.0071061864
  H         7.4180842945        7.5269278792       31.8027732475
  C         7.3398249924        6.4247218904       30.0351504136
  H        -9.5414329269        9.8997411727       24.9928142214
  H        -8.8734536419        8.2751624415       25.4173885159
  C        -9.9084434968        9.1332687373       27.0296616649
  S        -3.0101821321       13.9235403102       37.0661912843
  C        -2.9335491314       16.4851770443       37.6408630144
  H         2.3108345983        5.3663870694       11.2727470903
  H         2.4200014103        6.9015650315       10.6038591289
  H         3.0667570195        5.5915740759        9.7023457196
  H         8.2960003609        5.8597267728       30.3281336906
  H         7.7131480124        7.2681763773       29.5269392495
  H         6.7274566960        5.8198958589       29.4299831168
  H       -10.8363019218        8.6562702302       26.7714396208
  H       -10.1699885628       10.0996146561       27.4681687860
  H        -9.4725384743        8.5283973521       27.7313806317
  C        -3.4302428372       14.6872322074       38.6647257347
  N        -3.4578941083       16.0342084501       38.7749135011
  O        -2.6797878629       17.7101812487       37.5511226337
  S        -4.2228896919       13.8660310306       39.9932954619
  C        -3.7947949620       16.8783831061       39.9660786030
  H        -4.1253540276       17.8599496188       39.6322585239
  H        -4.6954345926       16.5706317617       40.4876262497
  C        -2.4550991221       17.0424680848       40.8473560212
  H        -2.6857756146       17.7178126754       41.6980064800
  H        -2.0126183940       16.1248475176       41.1985547261
  H        -1.7516255843       17.5131287343       40.2716725664
