352
 i =    95200, time =    95200.000, E =        25.2834773975
  H         9.7554412488        5.9791321550       31.6704779655
  C        10.3451037595        6.7644720359       32.0386510524
  H         9.7123971349        7.5350731384       32.4129751251
  C        11.0909334930        7.3593331653       30.8179606140
  C        11.1888741533        6.3116755463       33.2535552112
  C        11.4844585628        6.2034819108       29.8322185712
  H        10.5110622479        8.0894291116       30.2973890943
  H        12.0021460283        7.8706518259       31.2444206435
  H        11.4073714781        7.1046685715       33.8753376748
  H        10.7138682144        5.5143755368       33.8805288981
  H        12.1680687120        6.1088795512       32.8974076189
  C        10.3062614797        5.7105889499       28.9828231602
  H        11.8320364500        5.3390965069       30.3490825726
  H        12.4165217233        6.5268883569       29.2933105160
  C        10.5482400172        5.7950197046       27.4680859548
  H         9.9620177188        4.6810417415       29.0745190597
  H         9.4721754332        6.2661413495       29.3394460029
  C         9.5532811949        5.0414912040       26.5558204174
  H        11.6033870055        5.5085406190       27.2840648493
  H        10.5412134403        6.8411758664       27.2293671896
  C         8.4011503439        5.9961385463       26.2489404557
  H        10.0000391089        4.6485642037       25.6909399192
  H         9.1558673639        4.2503839337       27.0517579639
  C         7.2241992031        5.2401261550       25.4877736934
  H         8.0814048704        6.4651933284       27.1892330877
  H         8.8054919312        6.8548530812       25.7356614452
  C         6.9098153692        3.8812538399       26.1109878632
  C         7.7256632832        4.4640705998       24.2756591523
  C         6.0398496889        6.0834577091       25.1456687407
  C         7.0922581411        2.8000618047       25.2653346076
  C         6.4230803375        3.4886446914       27.3585920185
  C         7.6589683952        3.1393672327       24.0842273437
  C         8.1502164227        5.1996588675       23.1940586475
  H         5.4686696388        5.4654020054       24.4201161590
  H         6.2360167920        6.9668673395       24.6665439592
  C         5.0812255100        6.4824460983       26.2424282923
  S         6.7587547236        1.2675318499       26.0371509834
  C         6.3882996549        2.1130104835       27.4683227584
  H         6.2272210218        4.2611707848       28.0958919407
  C         8.1313435814        2.6012123775       22.9577959501
  H         8.0219597523        6.2257972364       23.2744381557
  C         8.5993811445        4.6624308551       22.0023599460
  H         4.9426566197        5.6814270594       26.9221546733
  H         5.5443699676        7.2929474010       26.8678774980
  C         3.7123356726        6.9380170195       25.7102950888
  C         6.0440508293        1.3640344209       28.7195842114
  C         8.5978872383        3.3300090805       21.8336626308
  H         8.0946658904        1.5240486519       23.0226616130
  C         9.1295739112        5.0696866744       20.7580277769
  H         3.4944451074        6.3255692366       24.8213953042
  H         3.8316878783        7.9580822786       25.3585034007
  C         2.5642037873        6.8326698980       26.6919679906
  C         6.0238377929       -0.0233314342       28.9862764578
  C         5.5746413801        2.2200720379       29.8690031498
  C         9.0802540201        2.6174889136       20.6116939123
  C         9.3896400598        3.9791572597       19.9501348736
  S         9.3810397938        6.5628864696       19.9291193537
  H         1.7455650893        7.2991233409       26.1591420405
  H         2.7801301738        7.5221998686       27.4856094545
  C         2.0737681520        5.4553228878       26.9923315480
  N         6.4284755184       -1.0344787476       28.1462839934
  C         5.6970079658       -0.5402511703       30.2388144952
  C         5.2585990032        1.6460293183       31.0669799960
  H         5.3872982650        3.2888064952       29.7665435600
  C         7.9258471781        1.8478591264       19.8732886631
  C        10.3533435223        1.8428068287       20.8820167271
  C         9.7802971168        4.3764741862       18.6893701775
  C         9.8196375954        5.7360132813       18.5276495601
  H         1.2926197034        5.2285847029       26.2492773627
  H         2.7277163895        4.6183057074       26.9030215197
  C         1.4194723327        5.3342141044       28.3968228143
  S         6.1723579641       -2.4475369057       28.8077896714
  N         5.8076275900       -1.9342449271       30.2880585530
  C         5.2378795838        0.2175029695       31.3067288601
  H         4.8602044395        2.2172937973       31.8793352654
  H         7.5030200597        1.0170060707       20.3358925211
  H         8.3727307687        1.2361830939       19.1026338848
  C         6.9052376727        2.6855180883       19.2328386229
  H        10.5918601566        1.2613822523       20.0198335474
  H        10.2519917206        1.1886081205       21.7299835676
  C        11.6421377679        2.7520626803       21.2161198020
  H         9.9221198346        3.5824429039       17.9077286063
  C        10.0781535834        6.4818502157       17.2830145957
  H         0.9978442192        4.3147402899       28.3471727278
  H         0.6453482437        6.0375062127       28.4069952117
  C         2.4573955830        5.5220328268       29.4587460181
  C         5.0085928632       -0.4583849535       32.5734951153
  H         7.1877435155        3.4503872628       18.4956456256
  H         6.3863520964        3.1107762180       20.0838407145
  C         5.8657286527        1.7884877318       18.5421141881
  H        11.3774385700        3.5498674426       21.9067954462
  H        12.0633897632        3.1937763113       20.3195423991
  C        12.7133680801        1.7975470805       21.7201922454
  C        10.1471475563        7.8697944717       17.1038817044
  C        10.5089207590        5.7221894082       16.0950422503
  H         3.0308992387        4.6252167164       29.6915859840
  H         3.2943570260        6.1506729297       29.1134081861
  C         2.0577489557        6.0910997837       30.7674214294
  H         5.0440169820       -1.5444659454       32.6299256075
  C         4.8244730483       -0.1007232069       33.8449388330
  H         5.6212808106        0.9956895400       19.2688028900
  H         6.3459977005        1.1850556324       17.7797329599
  C         4.6290994153        2.5229024069       18.1275516236
  H        12.4605349564        1.2201744865       22.5445654856
  H        12.9994148653        1.1196164135       20.9537528466
  C        13.8786643941        2.6932875798       22.1659055707
  N        10.0272156162        8.7929554335       18.2268016890
  C        10.4259156074        8.5181474792       15.9233461646
  C        10.8346565593        6.3109059982       14.8871691322
  H        10.5412885408        4.6485355190       16.1880992403
  H         1.2420361678        5.4655449463       31.2500809063
  H         2.8213271946        5.9869393854       31.5528006248
  H         1.6675769870        7.0793368659       30.6464818206
  S         4.6200999075        1.4632741661       34.4223724848
  C         4.7866350425       -1.2070878108       34.8849544224
  H         4.5803046894        3.3998063004       18.7575237410
  H         4.7576437807        2.7380188446       17.1303640778
  C         3.3388038494        1.7129503775       18.3442103235
  H        13.6397658146        3.5468698194       22.8386264282
  H        14.2408673147        3.0194035582       21.2040799536
  C        14.9075251790        1.8627466345       22.8612910204
  S        10.2126140823       10.3219467916       17.6349666468
  N        10.6499496866        9.9144658089       16.1504657538
  C        10.7879157981        7.7891062078       14.7498730139
  H        11.1887816724        5.6534231792       14.1540171405
  C         4.3725648704        0.7924105279       36.0525123414
  N         4.5758393648       -0.5757493249       36.0150891569
  O         4.9839421994       -2.4210667859       34.7769188524
  H         2.4433709549        2.2753431375       17.9821391751
  H         3.2098778566        1.4651856474       19.3646610637
  C         3.2179063428        0.4678772413       17.4823773468
  H        14.4665585184        1.4333404953       23.7806070150
  H        15.3058774570        1.1250432242       22.2230173388
  C        15.9575980166        2.8609640756       23.2611621627
  C        11.1100084284        8.6500286554       13.6287135243
  S         4.3636410572        1.6537806636       37.6641074383
  C         4.6623255883       -1.2822648972       37.3438041617
  H         2.6742569394        0.7344903929       16.5165894508
  H         4.2031661407        0.1803059930       17.1136157648
  C         2.3963334362       -0.6381932647       18.1296572240
  H        15.6817761161        3.2052347448       24.2373021179
  H        15.8705752235        3.7004143687       22.5328659653
  C        17.3656676363        2.3364835565       23.1856333654
  H        10.9961839565        9.6736163711       13.6342702227
  C        11.6620357967        8.3255092470       12.4090130088
  H         4.0635132495       -0.9109634108       38.1802984106
  H         4.0907029894       -2.2068581957       37.2378963881
  C         6.1766216979       -1.4960942403       37.7016181910
  H         1.6999091982       -0.1071365917       18.6866985760
  H         2.9778992161       -1.1931809836       18.8085659069
  C         1.7311137385       -1.6429609371       17.1785060948
  H        17.9737572803        2.6848600482       24.0433855000
  H        17.3548030620        1.3079778258       23.2897307412
  C        18.1663218784        2.7832569229       21.9452569352
  S        12.2132921737        6.7592256111       11.9848450517
  C        12.0237398424        9.3537270752       11.4347963206
  H         6.0527526495       -2.1403942182       38.6463586502
  H         6.5979472852       -2.0898768942       36.8501326146
  H         6.7151909107       -0.4983114388       37.8382149504
  H         1.2665937611       -2.4701433858       17.6954833519
  H         2.4541366408       -2.1154294933       16.5770628315
  H         0.9795610016       -1.1520390632       16.6018137656
  H        19.1501378319        2.3428815680       21.8009027369
  H        18.3236226282        3.8800966291       21.7768442506
  H        17.5469563474        2.5167861143       21.1083875314
  C        12.6763522569        7.4234808183       10.5148978928
  N        12.6529827045        8.7994141539       10.4243518861
  O        11.6822306936       10.5234437892       11.5443322030
  S        13.6105591091        6.4638326668        9.3171647086
  C        12.9480382584        9.5412657297        9.2464534581
  H        13.2727399683       10.4416452870        9.7282455821
  H        13.7850454834        9.1262634152        8.7285948486
  C        11.6906326492        9.5924820596        8.3187401617
  H        11.8474291824       10.3882093127        7.6002250861
  H        11.5279906312        8.7628289171        7.6554368538
  H        10.7660968451        9.8334883698        8.8752623136
  H        -3.7690598420       13.7860275423       16.2223030253
  C        -2.6777233904       13.7441488564       16.0723283541
  H        -2.3519632982       12.7301224971       16.1870826184
  C        -2.1650036817       14.4139159178       17.3159949051
  C        -2.2769579405       14.4284909166       14.7460081297
  C        -2.7234674472       14.0410120996       18.6468862050
  H        -1.0888279109       14.3136419522       17.4115617185
  H        -2.3215364089       15.5676638399       17.3002613559
  H        -2.6549708046       13.9812305970       13.7925658178
  H        -2.7612575891       15.4467515343       14.8310555996
  H        -1.2014654450       14.6052906747       14.8283742967
  C        -1.5810633443       13.6950896695       19.5938078580
  H        -3.4009227266       13.2275527580       18.4871948427
  H        -3.2686541481       14.8562922276       19.1358367749
  C        -2.0137311266       13.6433950749       21.0620605460
  H        -0.9785753745       12.8290841413       19.3539177798
  H        -0.8807745674       14.5371330876       19.4903548078
  C        -0.9816846453       13.0142822068       22.0159227091
  H        -2.9323111054       13.1096466742       21.2410996905
  H        -2.1938241558       14.6544034995       21.3605443218
  C         0.1630026899       13.9599470969       22.5594663302
  H        -1.5303226166       12.7390701390       22.8420189291
  H        -0.5615293575       12.1891215461       21.4953248666
  C         1.2690935374       13.2831869102       23.4423573640
  H         0.7789236643       14.3150548177       21.7638012768
  H        -0.1863757231       14.8452114704       23.0912932579
  C         1.8206747924       11.9595942751       22.8357715757
  C         0.7950548887       12.4693534504       24.5801914241
  C         2.4496907511       14.2380257052       23.8845482217
  C         1.4153280250       10.8005917478       23.4734793603
  C         2.4005577300       11.6650094512       21.5597317398
  C         0.9050659842       11.1361431205       24.6612129798
  C         0.4377430061       13.0834833597       25.7643660794
  H         1.9371912116       14.9560915530       24.5299421242
  H         3.0280449036       13.8160500648       24.6450121051
  C         3.2262330973       15.0153458095       22.8039641779
  S         1.8173774665        9.3552715156       22.6267358501
  C         2.4903915357       10.3336504655       21.3152356318
  H         2.5481199442       12.4957986888       20.8539181198
  C         0.5536857969       10.5068098841       25.8418718691
  H         0.2253297368       14.1364133059       25.8043271079
  C         0.0842366315       12.4455425342       26.9114866872
  H         2.7988190776       15.9672499766       22.4978526818
  H         3.1187178399       14.4025207232       21.9106862863
  C         4.7188253782       15.2393656476       23.1101223355
  C         2.7984352910        9.6755742404       19.9999551683
  C         0.0823271209       11.0698436898       27.0040146297
  H         0.4661383483        9.4123983768       25.7910584993
  C        -0.4595216826       12.8159572225       28.1373983842
  H         5.1472978905       14.6456299002       23.9767876966
  H         4.9288973652       16.2939455642       23.4538431761
  C         5.6561800374       14.9999767252       22.0021533517
  C         2.7717706984        8.2941134073       19.7262856331
  C         3.3318469488       10.5174482749       18.8552583708
  C        -0.2815194123       10.3590656817       28.2532011396
  C        -0.6232056803       11.7260409913       28.9477970368
  S        -0.8205818674       14.2961946810       28.9249091729
  H         6.5865419066       15.4451687502       22.2970270699
  H         5.3544637971       15.5509085677       21.1158442921
  C         5.8808618559       13.5193427295       21.5812902018
  N         2.4657725427        7.2424051921       20.6534642246
  C         3.2076219252        7.7904737088       18.5234054234
  C         3.5267444041        9.9766480628       17.5737013359
  H         3.4785886463       11.5831429716       18.9932594849
  C         0.8778693229        9.6023960386       28.9267905205
  C        -1.4723779545        9.3966558965       28.2808463446
  C        -1.0422249904       12.0532601449       30.2477105156
  C        -1.1678243708       13.4093853136       30.4095883921
  H         6.8089009785       13.1210451175       22.0635734326
  H         5.0336903811       12.9380599203       21.9418798666
  C         5.9822440889       13.3282879904       20.0955578755
  S         2.5204785425        5.7995191155       19.8900260770
  N         3.0636157594        6.3796539138       18.4373787329
  C         3.4612313408        8.5183054604       17.3182404950
  H         3.7941060120       10.6769445534       16.8815015295
  H         1.0584333143        8.5448913419       28.7080425397
  H         0.6933435378        9.5323325480       30.0052016595
  C         2.2432958039       10.3168602494       28.7724459684
  H        -1.1152235930        8.5318376862       27.6324812856
  H        -1.6932181354        8.9527134756       29.2644068825
  C        -2.7016378819        9.9624035353       27.5563872390
  H        -1.1107833923       11.3277950027       30.9916684592
  C        -1.4086976769       14.1439410800       31.6980014726
  H         5.2294627040       13.9718508637       19.5998581111
  H         5.6875621677       12.3010869325       19.7996921117
  C         7.3379068019       13.7557979466       19.5812586608
  C         3.6997498206        7.8564818083       16.0503491391
  H         2.6270886850       10.0837096698       27.7746441765
  H         2.0094497559       11.3554557416       28.7318359768
  C         3.3162024202        9.9988199973       29.8418766819
  H        -2.4779152389       10.1239701462       26.4991574613
  H        -2.9703708787       10.9656797022       27.8406627316
  C        -3.9415367060        9.0319845083       27.6981157163
  C        -1.4999524218       15.5295662280       31.9171903665
  C        -1.5971078102       13.3032582561       32.8899106826
  H         7.4138314324       14.7906830606       19.8376105025
  H         8.1234892874       13.1926821143       20.0485230350
  C         7.3779388852       13.6432154007       18.0223771586
  H         3.5288738996        6.8053735447       16.0830970133
  C         3.9055920993        8.3156188363       14.7698973942
  H         3.2085803076        8.9724120235       30.1792920529
  H         3.1697667926       10.5650543483       30.8173490896
  C         4.7304002349       10.0480855152       29.1726905084
  H        -3.7003797597        8.0723566502       27.2083421545
  H        -4.1020877551        8.7081483954       28.8169253692
  C        -5.2372623054        9.6415399215       27.3066767050
  N        -1.2769910666       16.5200631340       30.9536077875
  C        -1.6962642712       16.0934590764       33.1761408689
  C        -1.8898715783       13.8185944583       34.1763431353
  H        -1.5407448293       12.2824210061       32.7771975663
  H         7.9327502979       14.4888598987       17.6541639205
  H         7.8587387365       12.7236330449       17.7579980445
  H         6.3957722066       13.7903059167       17.5887680593
  S         4.1660542188        9.9820568987       14.3887292676
  C         3.9617364194        7.3870533073       13.5855790804
  H         4.7726814110        9.1588620148       28.4946787961
  H         4.9281413389       10.8833179605       28.5532613518
  C         5.9128661651        9.8951488941       30.0821777595
  H        -5.4164484233       10.4206534078       27.9275426263
  H        -6.0549164244        8.9600760518       27.4608183592
  C        -5.2420556176       10.1423476123       25.8198916769
  S        -1.3063954503       17.9823613371       31.7264551106
  N        -1.9283174631       17.4913472291       33.1428214829
  C        -1.8477169973       15.3250279064       34.3610137773
  H        -2.0413926757       13.0853137897       34.9755698389
  C         4.4029860786        9.4279034423       12.6624771747
  N         4.3554069781        8.0623498273       12.5091748554
  O         3.7872465895        6.1587576264       13.6902492485
  H         5.6434450206       10.2178927732       31.0874267786
  H         6.5967491888       10.6878412440       29.8084348915
  C         6.6067134914        8.5689976117       30.1136209648
  H        -4.2995726756       10.5492566795       25.3849092163
  H        -5.3813661631        9.2650097182       25.1316344537
  C        -6.2499559896       11.2515752579       25.6230346469
  C        -1.9733990970       15.9240093741       35.6027846336
  S         4.9805265366       10.4782232010       11.3610653479
  C         4.5047233053        7.4571939491       11.1737089993
  H         6.8384817700        8.2998433137       29.0122624304
  H         7.5829501198        8.6246405574       30.5807079118
  C         5.7864425619        7.4581228503       30.6709897477
  H        -6.2780243821       11.6509084829       24.5824606291
  H        -5.9713690431       12.1292229819       26.2060218852
  C        -7.6667142627       10.7803991338       25.9919547083
  H        -1.4519248536       16.8448182786       35.6894444064
  C        -2.7178212047       15.5824517821       36.7554098325
  H         5.3056256830        8.0322989094       10.6787392325
  H         5.0089511456        6.4258441539       11.2751920367
  C         3.0540677531        7.3110682717       10.5953902134
  H         5.2313498511        7.0408512451       29.8543837258
  H         5.0895083515        7.8518106444       31.4025994699
  C         6.4729054627        6.2730862020       31.3248510753
  H        -7.6409281876       10.5631447589       27.0619538670
  H        -8.4171516434       11.5088929199       25.7729390930
  C        -8.2888611872        9.5838789051       25.3136379208
  S        -3.6413957818       14.1695720565       36.9884005733
  C        -2.7598511034       16.6235533510       37.8109015829
  H         2.9161960634        6.4614106038        9.9820544266
  H         2.3640801504        7.1318491105       11.3821223441
  H         2.6150117844        8.1618021215       10.1008875708
  H         7.2649707420        6.5577268868       31.9914732649
  H         6.8636174702        5.5388511552       30.6211993191
  H         5.8035072423        5.8275144232       32.0041338887
  H        -7.5726215387        8.7310687168       25.3782971944
  H        -8.4877683958        9.8805049985       24.2435677710
  H        -9.1793502834        9.2758314856       25.8403072229
  C        -4.0950926217       14.9611291616       38.5377266966
  N        -3.6060090670       16.1726354606       38.7460723275
  O        -2.0907884389       17.6951904316       37.7473583603
  S        -4.9594473283       14.1677463736       39.7783056065
  C        -3.6828246043       16.7548869582       40.0637692638
  H        -3.5805228762       17.8275138748       40.0391089222
  H        -4.6926943857       16.6927188404       40.5384114716
  C        -2.5648157576       16.2289178025       40.9836230879
  H        -1.6615122046       16.8905483350       40.9236321740
  H        -2.9876749077       16.3213712549       42.0140399469
  H        -2.2072902948       15.2682072703       40.6473046685
