352
 i =    95700, time =    95700.000, E =        25.1755147526
  H        10.2411345048        4.6348295455       31.7823326603
  C        10.5835784429        5.5433261082       32.3666199826
  H         9.7598175793        5.9437939708       32.9031891156
  C        11.2995110393        6.4687086541       31.4093373684
  C        11.5518016481        5.0887265021       33.4816841417
  C        11.6054864312        5.9129015786       30.0633917649
  H        10.6453467885        7.3587947537       31.2817404420
  H        12.1227164939        6.8274887341       31.9555218642
  H        12.5382744387        4.7322519122       33.1658199913
  H        11.7012325048        5.9266517221       34.0734355251
  H        11.2127954117        4.2350596760       34.0397154454
  C        10.4172978035        5.7685416570       29.0358997407
  H        11.8173287491        4.8800665367       30.2304046234
  H        12.4741206354        6.3906043639       29.6511521629
  C        10.9255107408        5.6299908780       27.6287355494
  H         9.7944238660        4.9225750834       29.3016316049
  H         9.7588916863        6.5923339200       29.2863035597
  C         9.8685622921        5.0108947850       26.6715734145
  H        11.8522377088        5.0303532455       27.7732587739
  H        11.2172737143        6.5920103335       27.2547804606
  C         8.8192497579        6.0220511766       26.2721349306
  H        10.4965471845        4.6142724092       25.8600258475
  H         9.5886251433        4.0274423467       27.1659921307
  C         7.7056280306        5.3141839366       25.3860356265
  H         8.3581472704        6.3910919678       27.1884219284
  H         9.3872657562        6.7679308006       25.7255953366
  C         7.3850641569        3.9495297133       26.0335341941
  C         8.1721109850        4.6631580356       24.1310748636
  C         6.4976519055        6.2509150872       24.9614920922
  C         7.5553787538        2.9089931348       25.1801326130
  C         7.0093140175        3.5500290433       27.3180546001
  C         8.0742346965        3.3539798598       23.9666917866
  C         8.5260235404        5.4029369860       22.9739643071
  H         5.8470038802        5.7741385217       24.2775183658
  H         6.8595847689        7.1221856104       24.3553975530
  C         5.5759207840        6.6189995478       26.1658238412
  S         7.0870387991        1.3550523545       25.9064297803
  C         6.7944941378        2.2283372425       27.3826487431
  H         7.0097695991        4.2182575028       28.1756273253
  C         8.4576397320        2.7784726757       22.7770103499
  H         8.5654407953        6.4243791787       23.0269903292
  C         8.8480712394        4.8427172318       21.7309583810
  H         5.6783517558        5.8389983745       27.0460332074
  H         5.9225987831        7.5756303011       26.4535025995
  C         4.1070028568        6.7384428788       25.7504099096
  C         6.1784746574        1.6269379085       28.5934123353
  C         8.8887165238        3.4522910538       21.6560342316
  H         8.4363214097        1.7357733776       22.7255910806
  C         9.2930188826        5.1716451956       20.4712100792
  H         3.8649945391        5.9471479750       25.0865277737
  H         4.0720954686        7.6010244628       25.0750567303
  C         3.1876334415        6.8747119503       26.9925734773
  C         6.1211023665        0.2090163440       28.8750764040
  C         5.6970378793        2.5307122193       29.7466682296
  C         9.3524803231        2.7707790293       20.4346179732
  C         9.6122884330        4.0418129216       19.6799993514
  S         9.7282219936        6.5996182198       19.7158950098
  H         2.4829522524        7.6578671614       26.8308673792
  H         3.7503481600        7.3017005939       27.8178487135
  C         2.6353070770        5.5516356174       27.4151394581
  N         6.5576483323       -0.7874437339       27.9765027333
  C         5.8689901679       -0.2906225775       30.1231344679
  C         5.2646432163        1.9346961284       30.9303554921
  H         5.7802879931        3.6110495662       29.7556590111
  C         8.2917193123        1.9980180239       19.7115427460
  C        10.5657737630        1.9547148802       20.5665647702
  C        10.0102741250        4.3970905212       18.3529597627
  C        10.0946374850        5.7474021255       18.1747069653
  H         2.1639962771        5.1232499478       26.5345065522
  H         3.4089313425        4.7432747299       27.6470020147
  C         1.5812051887        5.6247777397       28.5355576121
  S         6.5419438516       -2.1786787755       28.7441386797
  N         6.0064438521       -1.6867482150       30.1823885089
  C         5.5473779011        0.4959507961       31.2520772069
  H         4.9572206197        2.6138973815       31.7396390088
  H         7.9731285916        1.1203603223       20.2727944781
  H         8.7646180892        1.6714557129       18.7921293253
  C         6.9275552484        2.7250581679       19.4257841946
  H        10.9613769549        1.7023054018       19.5522997701
  H        10.3710619822        1.0014174547       21.0508530352
  C        11.7314182643        2.8120692198       21.2013630935
  H        10.1888926721        3.6547311605       17.6460377461
  C        10.2201701604        6.4720692254       16.8589520342
  H         0.7621314205        4.9105391217       28.4119196582
  H         0.9845656643        6.6102587925       28.4867477028
  C         2.3304923584        5.7426745169       29.8595413558
  C         5.1857291040       -0.1166586853       32.4902363296
  H         7.0591683051        3.3518775916       18.5767780353
  H         6.5877394871        3.2257503016       20.2629225578
  C         5.8489763067        1.7389942536       18.9620404723
  H        11.3952095280        3.2928619618       22.1344083286
  H        11.9715218291        3.7416931637       20.6773652775
  C        13.0858658578        2.1201618088       21.3959242294
  C        10.3093740218        7.9187084106       16.7130592576
  C        10.4529401421        5.7622286685       15.5860490395
  H         3.2846822467        5.1561330963       29.8715668134
  H         2.7349122188        6.7443710699       30.0366994727
  C         1.5522388880        5.3054458452       31.0337682594
  H         5.4616384431       -1.1612379491       32.4338444800
  C         4.8335944811        0.2399677114       33.7782961112
  H         5.5285560415        1.0614035862       19.7540005788
  H         6.2350411197        1.1593386768       18.1424485121
  C         4.6791705482        2.5119851081       18.4289589721
  H        12.8137465738        1.1583887204       21.9142271572
  H        13.5856621048        1.8118183614       20.4749673165
  C        13.9811093811        3.0102839759       22.2164477456
  N        10.2091204611        8.7633888011       17.8417056716
  C        10.5776550550        8.5811529930       15.5599323813
  C        10.7481188209        6.4603974683       14.3974580388
  H        10.3796991485        4.6756711146       15.5975477183
  H         0.8672737545        4.5825245562       30.8223631472
  H         2.2091437801        4.8931721984       31.8265387049
  H         0.9856958772        6.1363346639       31.5526119627
  S         4.5227254030        1.7460348755       34.3904125704
  C         4.6200128196       -0.8876156412       34.7141400296
  H         4.4621080414        3.3998826191       19.0812155211
  H         4.9979323660        3.0831393063       17.4858980798
  C         3.4126095319        1.6355294686       18.1529772112
  H        13.4579763788        3.3428630151       23.1447910972
  H        14.2924286866        3.8826763226       21.6435137948
  C        15.1800745243        2.2852081551       22.6395243769
  S        10.1398337594       10.2665742654       17.2766546502
  N        10.5413190161        9.9182211670       15.8050488207
  C        10.8936824624        7.9420300110       14.3435845589
  H        10.8374228096        5.9150748761       13.5221441679
  C         4.3078308927        0.9701407300       35.9720901732
  N         4.3663760238       -0.3918279932       35.9633783359
  O         4.8701806596       -2.0895067772       34.5635512830
  H         2.5858033247        2.1501177375       17.7418856685
  H         3.2229605617        1.4558765567       19.2462043020
  C         3.6570666397        0.3829868786       17.3597181060
  H        14.8947231405        1.3820742625       23.1675826192
  H        15.6701856952        1.9648214129       21.6951935113
  C        16.0847994851        3.2133791558       23.4475763087
  C        11.2928729221        8.6376327182       13.1873252517
  S         4.0542021238        1.8359108908       37.4982295579
  C         4.3211899183       -1.2159753382       37.1371858899
  H         3.7481175555        0.5697843132       16.3416989756
  H         4.5785539177       -0.1710678729       17.6282169636
  C         2.6279781204       -0.7352189772       17.5155184157
  H        15.3718611982        3.7300855817       24.1741790285
  H        16.4824379103        4.0890876727       22.8825494754
  C        17.2450304745        2.3974984180       24.0706850472
  H        11.1065781710        9.7090649929       13.2567898036
  C        11.6868297894        8.2905886582       11.9360727622
  H         3.7116356916       -0.7342383964       37.8502076914
  H         3.9309802657       -2.1716446182       36.9448885698
  C         5.6961224236       -1.4890265134       37.6140523275
  H         2.5525196875       -1.3773369324       16.6249065386
  H         1.5540576968       -0.3947045111       17.7632973489
  C         2.8708832943       -1.6400586989       18.7023715070
  H        17.5141758637        2.8699790473       24.9742876768
  H        16.9826809467        1.3211932922       24.3895942782
  C        18.4071644201        2.3171665352       23.0956361014
  S        12.1325848556        6.6805004291       11.3945391086
  C        11.9745234457        9.3175025215       10.8526512918
  H         6.5445151886       -1.5423413731       36.8624856453
  H         6.0221138921       -0.6080636481       38.2112362896
  H         5.8003049687       -2.3526523954       38.3556362498
  H         2.1547596557       -2.4301404896       18.7333795745
  H         2.5341792539       -1.1855676980       19.6172590658
  H         3.8680998866       -2.0294451215       18.7456347163
  H        19.1094836978        1.5325921461       23.3039442652
  H        18.9284799691        3.2411349622       23.0903522084
  H        17.9924420904        2.0277851859       22.0864209580
  C        12.4918615695        7.3205885926        9.8050301709
  N        12.4545139804        8.6649356183        9.7781488715
  O        11.9219718420       10.4959401253       11.0368713185
  S        13.2066945899        6.3663666056        8.4988746315
  C        12.6887591917        9.4296498093        8.6060016564
  H        12.9183319593       10.3884418527        8.8448871202
  H        13.6088557911        8.9139529262        8.1559624692
  C        11.4249130315        9.5409256328        7.7104648899
  H        11.6177405314       10.3137622575        6.9565627218
  H        11.2328038454        8.6361731076        7.1039364815
  H        10.5622164567        9.8381988117        8.3007303764
  H        -1.6462152423       12.8152033668       17.2578230083
  C        -1.7390301182       13.8702428455       16.9114955971
  H        -0.7437683630       14.1778102970       16.8687319531
  C        -2.5550563223       14.7358525279       17.8545051474
  C        -2.2329567007       14.0316245656       15.4818259788
  C        -2.8452706651       14.0408409115       19.2159952548
  H        -2.2652933624       15.7641613209       17.9907708160
  H        -3.5221150053       14.8713532491       17.3926809947
  H        -3.1672224243       13.4904303202       15.2707889239
  H        -2.4375237010       15.0730731595       15.2670320323
  H        -1.4686932375       13.7372393885       14.8054407459
  C        -1.5354520853       13.8989563038       20.0086972056
  H        -3.3069260456       13.1364737342       18.9614799130
  H        -3.5914877588       14.5144782769       19.8510127718
  C        -1.8132540343       13.4161163885       21.4097405551
  H        -0.9605712045       13.0409983163       19.5696564574
  H        -1.0517545613       14.8557366691       20.0068343619
  C        -0.6789504932       12.7764794338       22.1524627802
  H        -2.6178686674       12.6339050245       21.3432225310
  H        -2.2363243306       14.2295492738       21.9998490541
  C         0.3419559950       13.6947217479       22.7316128129
  H        -1.1324811349       12.0797713728       22.9068464669
  H        -0.1103005606       12.2583782510       21.4481377808
  C         1.5020982669       13.0043022582       23.4496649941
  H         0.9104080062       14.2411497409       21.9822309105
  H        -0.0675989556       14.4486656444       23.4300774682
  C         1.8885137803       11.6375826048       22.8590216805
  C         0.9726167849       12.2733357936       24.6414098819
  C         2.6545197303       13.8622756088       23.9456351937
  C         1.6663083199       10.5909247633       23.6529720400
  C         2.3869295757       11.2750351677       21.5841439164
  C         0.9964261711       10.9575256865       24.7834288531
  C         0.5965154237       12.9063123736       25.7970164581
  H         2.2536889101       14.8108692634       24.3180419609
  H         3.2166498741       13.4209023921       24.8002193877
  C         3.7344056588       14.1805809893       22.8846251446
  S         2.1780673991        9.0636419776       22.9965182756
  C         2.5287441189        9.9058048829       21.5118901806
  H         2.5798954315       12.0803756003       20.9218997851
  C         0.5979435638       10.3692931354       25.9469868879
  H         0.5940894649       13.9946528544       25.7663382272
  C         0.2484425882       12.3902747120       27.0136520442
  H         3.2918200860       14.9635306111       22.2645776334
  H         4.0868857387       13.3762352890       22.2802388096
  C         4.9534637205       14.8442283653       23.5957649511
  C         2.8931686807        9.1591125918       20.2485687853
  C         0.2752635593       11.0964095401       27.1345575731
  H         0.6940277389        9.2680847929       26.1387324210
  C        -0.2979463418       12.8303792141       28.2087930494
  H         5.4485329161       14.2218850428       24.3461160400
  H         4.5603168494       15.7620554828       24.0899764667
  C         6.0498624534       15.1372427275       22.5228578542
  C         2.7743145999        7.7557735502       20.0270349006
  C         3.2914279577        9.9706572236       19.0631577651
  C        -0.0194006545       10.4028716406       28.4328750740
  C        -0.3921871501       11.7389353928       29.0796155669
  S        -0.6852899749       14.3361807506       28.9265486455
  H         6.7757193355       15.8634526971       22.7700827221
  H         5.5034355244       15.5233254465       21.6196488081
  C         6.6688316693       13.8456286330       21.8846205134
  N         2.2945545934        6.8115768997       21.0073649051
  C         3.0748942741        7.1843111284       18.8496242471
  C         3.4598269720        9.3687071357       17.8469679489
  H         3.3494575565       11.0378047247       19.1977539826
  C         1.2214177667        9.8263542308       29.0592300400
  C        -1.2568802587        9.4603051606       28.3531590735
  C        -0.8765077698       12.1303943640       30.3174485671
  C        -1.1043262561       13.4670443199       30.4328386475
  H         7.7014170793       13.7857482826       22.0833867835
  H         6.2692368663       12.9544358775       22.4305809082
  C         6.4487046349       13.6004710780       20.3294838372
  S         2.3109820110        5.3185600883       20.3498405412
  N         2.9367505057        5.7741484481       18.8731669543
  C         3.4157595644        7.8999915846       17.6617379351
  H         3.6566610191        9.9555557817       16.9971335237
  H         1.7941374850        9.2181045507       28.3547569436
  H         0.8353574990        9.1890708679       29.8360993456
  C         2.2140356856       10.8371334431       29.7520888691
  H        -0.9688471661        8.7100567845       27.6663021641
  H        -1.4124920494        9.1538511247       29.4220621174
  C        -2.4963482378       10.2652631452       27.7950089428
  H        -1.0794254266       11.3054391319       31.0177457805
  C        -1.3165737361       14.2189790886       31.7145222153
  H         5.5186281507       14.1590277193       20.0049011463
  H         6.2300333868       12.5683559907       20.1794779627
  C         7.6991632275       13.9176905966       19.5201835791
  C         3.7563809539        7.1990620176       16.4444361038
  H         2.7896288080       11.3797460736       28.9476256859
  H         1.6896327874       11.5112594461       30.4027698442
  C         3.2502580913       10.2157264482       30.7594180090
  H        -2.3534352135       10.6838519105       26.7780414438
  H        -2.7765679336       11.0114816148       28.4662407610
  C        -3.8472281755        9.5260979964       27.7564826085
  C        -1.6154754409       15.6174535062       31.8594473867
  C        -1.6064013503       13.4150328761       32.9172385736
  H         8.1425224995       14.9575875932       19.6028758400
  H         8.4779507598       13.2256551058       19.8438700280
  C         7.4703324290       13.7022629242       18.0054056362
  H         3.8032846060        6.0765190885       16.5228074046
  C         3.9040370594        7.7761858746       15.1600287907
  H         2.8391256680        9.3273634121       31.1985360201
  H         3.3995266823       10.9594448103       31.5649990913
  C         4.5058920867        9.8082388737       30.0717624294
  H        -3.8068242475        8.8812070048       26.8734345990
  H        -3.8945957905        8.7702110812       28.5272216328
  C        -5.0942159256       10.4780218152       27.7108190841
  N        -1.4749978662       16.4910018157       30.8495826021
  C        -1.8086098115       16.2062871432       33.1175060181
  C        -1.7497491953       14.0243152921       34.1621243622
  H        -1.4934281743       12.3474247212       32.9964981438
  H         6.4774247209       14.0448838068       17.7145690109
  H         8.2441422781       14.1345170401       17.3787398398
  H         7.5102863002       12.6825478970       17.7467905600
  S         4.1601273621        9.3994967880       14.7358811555
  C         3.9634907249        6.7723028184       14.0434431307
  H         4.2215937058        9.1221376831       29.3103234039
  H         4.9498451577       10.6953061719       29.6084762521
  C         5.5204476733        9.1162263939       31.0052189238
  H        -4.8312191805       11.3953586632       27.0814744532
  H        -5.2741889371       10.9275168343       28.6830006462
  C        -6.1975503505        9.6705728108       27.2435769806
  S        -1.5941311392       18.0072389539       31.5400965731
  N        -1.8231466238       17.6170230148       33.1330954492
  C        -1.8840212161       15.4677289582       34.3122759151
  H        -1.7014864084       13.4425378153       35.1052858828
  C         4.2641193972        8.7380621081       13.1034281528
  N         4.2640989415        7.3832308324       12.9016604076
  O         3.7814731101        5.5997641637       14.2250389678
  H         5.0068836326        8.8369062088       31.9175149715
  H         6.0982220294        9.9409151237       31.4315749241
  C         6.4830568204        8.1084125643       30.2760623729
  H        -5.9263602444        9.1413499123       26.3552258232
  H        -6.3423653710        8.8256605767       27.8787553533
  C        -7.4218728511       10.5951537111       27.3413262861
  C        -2.0890794067       16.2171868960       35.5573191060
  S         4.7550080834        9.8291934260       11.7052194208
  C         4.2368850398        6.8294002334       11.5429231740
  H         6.4708404686        8.2376746171       29.2424585310
  H         7.4621050400        8.2216777413       30.6943812331
  C         6.0172781918        6.6364279571       30.4933905554
  H        -7.2004734231       11.5197201731       26.8644239946
  H        -7.6202818038       10.7136219955       28.4234659312
  C        -8.6899580934        9.9828758219       26.6724609422
  H        -1.7162833911       17.2952500412       35.6018818961
  C        -2.6978658182       15.7844909887       36.7109077506
  H         4.7826081577        7.3918424017       10.7543927772
  H         4.6150606980        5.8501466494       11.4708852173
  C         2.7577254037        6.7231817081       11.1032160891
  H         5.9222498971        6.0958855834       29.5444450361
  H         5.0294690519        6.6072091847       30.9972703574
  C         6.9364305754        5.7930000487       31.4100527729
  H        -8.9395602319        9.0676614498       27.1277428297
  H        -9.5552793879       10.6834266243       26.8507039102
  C        -8.6121928645        9.7017069704       25.1722678392
  S        -3.2883138052       14.2480864603       37.0650406537
  C        -2.9157621095       16.7481771313       37.7862584711
  H         2.3725703774        5.7746507365       11.3776643567
  H         2.1996863286        7.5429903474       11.6165235700
  H         2.6792879530        6.7377669465       10.0201269197
  H         6.8688198059        6.2035340319       32.4095636955
  H         7.9964978887        5.8788038258       31.1051980638
  H         6.6371451302        4.7585812094       31.3920131964
  H        -8.0529387285        8.8095330389       24.9941014734
  H        -8.0098136181       10.4705415922       24.7056035035
  H        -9.5967386970        9.4992444138       24.6055977119
  C        -3.8130410587       14.8115269588       38.6214645401
  N        -3.6165164555       16.1381826771       38.7757358064
  O        -2.8244558525       17.9560302725       37.7250478895
  S        -4.7294870716       13.9368983555       39.9148065184
  C        -3.9478634910       16.8439492173       39.9599005603
  H        -4.2002744809       17.8661002554       39.6491437488
  H        -4.8496800805       16.4849112779       40.3674662075
  C        -2.8293846566       16.7855323598       40.9731916514
  H        -2.0460907269       17.5904599526       40.7300037583
  H        -3.2364573446       16.9836154805       41.9993932829
  H        -2.2423896872       15.8409711037       41.0376099528
