352
 i =    37700, time =    37700.000, E =        25.3550079202
  H        11.7368343954        7.1630893560       32.3929059706
  C        11.2658866063        6.1674536924       32.4431364960
  H        12.0654399906        5.4266036940       32.2291263241
  C        10.1393070018        6.1706901985       31.4161499605
  C        10.6988016733        5.7703098372       33.8042264486
  C        10.7298383642        6.2315059805       30.0750844686
  H         9.6913965041        5.1280990336       31.5726597846
  H         9.4541222335        6.9741152446       31.6094303576
  H         9.8986680877        6.4315998787       34.0757148293
  H        10.4307960555        4.7138003119       33.8707276410
  H        11.4571325111        5.9097622562       34.5591395857
  C         9.7660413296        5.7333362377       28.9913552619
  H        11.7658904284        5.8061264151       30.0199958120
  H        10.8206700611        7.3049097266       29.8279023891
  C        10.3961985198        5.9532375150       27.5769362302
  H         9.5936492177        4.7062654871       29.1693594590
  H         8.7810407985        6.2515833987       29.1289359898
  C         9.5638507970        5.2307875658       26.4902316593
  H        11.3836715006        5.5520361462       27.6568957882
  H        10.4962289169        7.0101616896       27.3551598636
  C         8.2762728966        6.0234153013       26.1581637655
  H        10.1246411192        5.1600238765       25.5778922894
  H         9.4718452591        4.2648765183       26.8637512234
  C         7.1522917678        5.2354706065       25.3955868949
  H         7.7533390784        6.5126168773       26.9938272647
  H         8.4320465126        6.8048367483       25.4408126046
  C         6.8786232370        3.9274615781       26.0852510865
  C         7.6958003274        4.5803923711       24.1375726668
  C         5.8599652098        6.1149965513       25.2095039821
  C         7.1729082117        2.8530135434       25.2895837154
  C         6.4501216367        3.6208390565       27.3817557008
  C         7.6554270553        3.2289521443       24.0803015471
  C         8.0696628885        5.2809766345       23.0112790943
  H         6.1090087579        6.8787211579       24.4936789870
  H         5.6023010206        6.5414490088       26.1604596477
  C         4.6053174546        5.3865730252       24.7275272970
  S         6.6728572646        1.3716739166       26.0293002171
  C         6.3012525358        2.2445524713       27.5219410129
  H         6.2737890780        4.4372908936       28.0327825809
  C         7.9860453542        2.6238334711       22.9188802695
  H         8.0658456764        6.3438813850       23.1601151235
  C         8.4942581278        4.6045541451       21.8500864608
  H         4.7877940692        5.0608824766       23.7054500639
  H         4.4703856060        4.3844978061       25.1454387566
  C         3.4244106099        6.2947281024       24.7975260390
  C         5.7963152867        1.5009156970       28.7104924517
  C         8.4832328449        3.2395455602       21.7769067293
  H         7.9687221696        1.5529685225       22.7717631656
  C         9.0403479950        4.9181798918       20.6245215454
  H         2.6445811111        5.9071888331       24.1472979537
  H         3.7304077176        7.1549342741       24.2033919896
  C         2.7942335664        6.5779348022       26.1830282880
  C         5.8568577659        0.0922756071       28.8926378117
  C         5.2983132018        2.3290594055       29.8309913874
  C         8.9093138743        2.5004361030       20.5168837410
  C         9.2795317470        3.7635803405       19.8062732240
  S         9.5054328011        6.3702197999       19.7347017995
  H         1.8675831818        7.1011346209       26.0577038353
  H         3.5625465880        7.1292615845       26.7218660829
  C         2.3825172979        5.3326316724       26.9571470895
  N         6.3132743788       -0.8675678388       28.0476679679
  C         5.5969462485       -0.4502948490       30.1629095625
  C         5.0638992039        1.8419218551       31.0616096016
  H         5.3933250590        3.4006877462       29.7238726414
  C         7.6791154486        1.8597534076       19.7670489840
  C        10.1199249707        1.5131319606       20.7405699101
  C         9.6575144879        4.1206199703       18.5119649370
  C         9.8499939928        5.4653867466       18.2960684136
  H         1.6372447847        4.6626061974       26.3516398494
  H         3.2370026449        4.6596563691       27.0308268539
  C         1.8889023329        5.5621457673       28.4254721354
  S         6.1391349834       -2.3290889436       28.7966114179
  N         5.7702128729       -1.7894536855       30.2261344110
  C         5.2494316162        0.3646143873       31.3378815369
  H         4.7401228049        2.5891648706       31.8700639651
  H         7.3508069782        1.0149549770       20.3880399383
  H         7.9128503007        1.4089270926       18.8413550749
  C         6.4941680996        2.8717845875       19.3344103677
  H        10.4835543215        1.2057775872       19.7308857064
  H         9.8110869505        0.6689608822       21.2440301306
  C        11.3854066609        2.1594658283       21.3455673632
  H         9.7173865742        3.4025636206       17.7455775626
  C        10.1212701593        6.2747553870       17.0285130161
  H         1.2543235813        4.6534435777       28.6351726115
  H         1.2275382039        6.3863326924       28.4100061557
  C         3.0948486607        5.9016556179       29.3950951702
  C         5.0391643044       -0.2000582986       32.6190157541
  H         6.7041660570        3.4048654367       18.3611288459
  H         6.3036251728        3.6425458210       20.0317548608
  C         5.1674965722        2.0919836437       19.2531462815
  H        11.3499247708        2.2687844875       22.4321585320
  H        11.3839687544        3.1907171523       21.0913952268
  C        12.7562621950        1.5801283656       20.9253883425
  C        10.2467246454        7.6712815028       16.9129027778
  C        10.2999810197        5.4567312604       15.8021178665
  H         3.9080425875        5.1984897115       29.1962853585
  H         3.5404788738        6.8710633528       29.2576417327
  C         2.6296339984        5.5741573253       30.8261995235
  H         5.2930789110       -1.1907716914       32.6037612577
  C         4.6604421735        0.2763515790       33.8477858244
  H         4.5343775148        2.3495086669       20.1053733653
  H         5.3544822848        1.0599911148       19.3573795118
  C         4.4858977221        2.3252659942       17.9009637631
  H        12.8751824851        0.7776472468       21.6679627589
  H        12.8289704366        1.1768091249       19.8984707359
  C        13.8074206433        2.6544599614       21.1209450347
  N        10.0836890579        8.6386154718       17.9467024742
  C        10.4699699322        8.2951393019       15.6943848134
  C        10.5772724005        6.0733745905       14.6008411989
  H        10.1997687050        4.3732814407       15.8051483493
  H         1.5901896037        5.8133269024       30.9282420901
  H         2.8077667975        4.5405681584       30.9911966448
  H         3.1753980550        6.1466646704       31.5712814643
  S         4.2856091124        1.8330907020       34.3115580311
  C         4.5440013390       -0.7114025700       34.9764672207
  H         4.5852962796        3.3564810960       17.5111015652
  H         5.1620002814        1.8197294963       17.1972396812
  C         3.0527554654        1.7732560574       17.7782765272
  H        13.4356629518        3.5818511154       20.7764639379
  H        14.6951096174        2.5925148181       20.4733656843
  C        14.2860535764        2.8033685253       22.5979885669
  S        10.1651979238       10.1231969846       17.2957177522
  N        10.4736025819        9.6728440762       15.7557182824
  C        10.7077615236        7.5718528329       14.4628404312
  H        10.7769975699        5.4993233953       13.7847866620
  C         4.0770327905        1.3151795496       35.9715062343
  N         4.1584192669       -0.0194603072       36.0873992108
  O         4.7887980710       -1.9122431538       34.9419098840
  H         2.9098915606        1.9854619119       16.7542726355
  H         2.4363227493        2.4334138301       18.3344189229
  C         2.8317784575        0.3165710600       18.1541439894
  H        14.9073530751        3.6925541479       22.5942152392
  H        13.4141968354        2.9998597831       23.2236408835
  C        15.1536797823        1.6902526684       23.1132455333
  C        10.9508675523        8.3017196416       13.2478605227
  S         3.3951118450        2.2292710906       37.3587974877
  C         4.1152956495       -0.7443739758       37.4270928392
  H         3.3324314582        0.0438871005       19.1303527748
  H         1.7730048852        0.1596207695       18.3843743065
  C         3.0584023325       -0.6231325092       16.9276091193
  H        15.4189881546        0.9462321176       22.3549103001
  H        14.6295716946        1.0639865624       23.7937669089
  C        16.5337150547        2.2191462854       23.6231076100
  H        11.0620310164        9.3671805986       13.3636156325
  C        11.3711746421        7.9374828171       12.0099489362
  H         3.2768696101       -0.4982772732       38.1187662302
  H         3.9830682829       -1.8224012071       37.2472780961
  C         5.5342476324       -0.7284944328       38.1143806219
  H         4.1560195870       -0.5094583112       16.8220204960
  H         2.5863851875       -0.2350222051       16.0225548747
  C         2.6533082662       -2.1126820811       17.1419012556
  H        16.4784788890        2.9865744055       24.3153656012
  H        16.9347468126        1.4919230770       24.2739239668
  C        17.6134314588        2.3683409845       22.5220845812
  S        11.7661244723        6.3190231898       11.6616671586
  C        11.4133007069        8.9334010771       10.9071868469
  H         5.5997631699        0.1547841731       38.7796924471
  H         5.6638962491       -1.6963561248       38.5942388552
  H         6.2717058006       -0.6939741967       37.2552230609
  H         1.8849893541       -2.1684746223       17.9224725955
  H         3.5831622063       -2.6266658511       17.3764278730
  H         2.3416938068       -2.5246110443       16.1992139364
  H        18.4896173046        2.5619751444       23.0615632377
  H        17.3420767064        3.1438301067       21.8358907224
  H        17.6596516286        1.3722274850       22.0121145638
  C        12.3815163416        7.0203067399       10.1348585809
  N        12.0396807215        8.3076368319        9.9063553610
  O        11.0595355761       10.1249213909       11.0159972979
  S        13.2655221896        6.2632781256        8.8399194794
  C        12.2675464182        8.9880007515        8.6799132333
  H        12.1668957766       10.0210768632        8.9176414216
  H        13.2801028690        8.8561455112        8.3354995933
  C        11.2467058832        8.6946455921        7.6227341077
  H        10.3045898648        9.0854955194        7.8870126684
  H        11.3787764196        9.0827403689        6.6109179074
  H        11.0610678576        7.6682225837        7.5578014399
  H        -3.1318230859       15.4663838472       16.2616421738
  C        -2.8122252063       14.4574342663       16.4676740913
  H        -3.7524272250       13.9703008279       16.7059681020
  C        -1.7662676494       14.5028881792       17.5401020935
  C        -2.2968240311       13.8110502860       15.1859826511
  C        -2.4580845060       14.1499714857       18.8253801018
  H        -0.8963025995       13.8026787949       17.4851943829
  H        -1.4636504730       15.5403168829       17.5472083747
  H        -1.2838845129       14.1618086403       15.0221196763
  H        -2.3754544669       12.7421828275       15.2344766584
  H        -2.8668535630       14.0933095485       14.2791311667
  C        -1.4160954863       13.8428015128       19.8859659703
  H        -3.1219185651       13.2496217535       18.8085920307
  H        -3.1300611975       14.9546535832       19.0919120981
  C        -2.0567294845       13.7149359174       21.2334536184
  H        -0.9332548666       12.8386307551       19.6181094594
  H        -0.5327359043       14.5679280704       19.8406992763
  C        -1.1363763223       12.9496143496       22.2201188053
  H        -2.9956736245       13.1661009886       21.1982862483
  H        -2.4131358885       14.6816921939       21.7043418924
  C         0.0482276553       13.9463464158       22.6267955901
  H        -1.7532555341       12.6868535901       23.0412802433
  H        -0.9734686930       12.0165145573       21.8093144928
  C         1.1252114688       13.1742352200       23.3676375602
  H         0.3652643336       14.6020800751       21.7617547752
  H        -0.4695454446       14.6628027173       23.3141856269
  C         1.5167055679       11.8390846960       22.5627678514
  C         0.6336326107       12.3040399181       24.5136713078
  C         2.3513602632       14.0510265228       23.6514133392
  C         1.3072377652       10.6737541192       23.3234955182
  C         2.0965483543       11.5148992378       21.2788930823
  C         0.6747069701       10.9311456185       24.5565733051
  C         0.2096416207       12.9988094421       25.6342405266
  H         2.4613039917       14.5086917829       22.6668666657
  H         2.0291017580       14.8770027014       24.2632642267
  C         3.5914575921       13.4359212586       24.3093077828
  S         1.7203488295        9.1693031831       22.5388474210
  C         2.2249453947       10.1233713285       21.0788468162
  H         2.4693720900       12.3444724366       20.7187854948
  C         0.2582551540       10.3071298597       25.6632042051
  H         0.1253150238       14.0542909888       25.6173657054
  C        -0.1497587339       12.3763482773       26.7935505467
  H         3.7916288128       12.4389155893       23.8234601849
  H         3.5255015965       13.0619744780       25.3312805561
  C         4.7530470647       14.3511023863       24.2188416691
  C         2.7343212347        9.4970772029       19.8286196631
  C        -0.1852880229       11.0078069866       26.7939309785
  H         0.1491756176        9.2689147380       25.6359067960
  C        -0.6293309515       12.6814266122       28.0604428348
  H         5.4816657182       14.0204966779       24.9129380289
  H         4.4047389074       15.3153270479       24.5430837038
  C         5.4002401157       14.5381556633       22.8202569178
  C         2.7821478701        8.1621768785       19.5417323683
  C         3.2446314745       10.3882016806       18.7607864325
  C        -0.6802409858       10.2999131005       28.0240506296
  C        -0.9464116516       11.5529600512       28.7654451323
  S        -0.7915960443       14.1809925340       29.0354170936
  H         6.2423378150       15.2813403221       22.8700026707
  H         4.6408140021       14.9496774657       22.2055512050
  C         5.6788445625       13.1533968613       22.1701776362
  N         2.3133207303        7.1675577298       20.4663884512
  C         2.9424236631        7.5959340985       18.2756070022
  C         3.5042739741        9.8813071743       17.5177480028
  H         3.3775231879       11.4729437160       18.9302396127
  C         0.4165672151        9.5353005791       28.7690773385
  C        -1.9499840218        9.3707377028       27.7759882942
  C        -1.3759997013       11.8901361016       30.0970121650
  C        -1.2706487265       13.2545086533       30.3639281020
  H         5.9242989542       12.3860218121       22.9509596641
  H         4.7447498372       12.8561823403       21.5644466562
  C         6.8964597444       13.1479398256       21.2873468144
  S         2.3415172786        5.7337051112       19.7891556378
  N         2.7428521068        6.2134297616       18.2711902236
  C         3.3232783024        8.4269833834       17.2419605226
  H         3.9702277778       10.5365080026       16.7771302138
  H         0.8867936752        8.8498591796       28.0472128053
  H        -0.0503772001        8.9599736105       29.6194238104
  C         1.5081102093       10.4120630864       29.4142141063
  H        -1.6767477699        8.5618224400       27.1262380149
  H        -2.2985158602        8.8692831233       28.6805780434
  C        -3.2544756132       10.0765162530       27.3053619513
  H        -1.8327611709       11.1705320035       30.7615002160
  C        -1.5991485270       13.9362103036       31.6590653863
  H         7.1143455052       12.2035269861       20.7805230558
  H         7.7425182941       13.4370082007       21.9766956795
  C         6.9053513972       14.2215121631       20.1660864950
  C         3.5845485326        7.8388545383       15.9726200780
  H         1.8919789084       11.1386090471       28.7470556864
  H         1.1114783438       10.9386960000       30.2410978295
  C         2.6648598027        9.6159472023       30.0637547000
  H        -2.9622395227       10.5715549916       26.3867165136
  H        -3.4539170340       10.8714493732       28.0388314753
  C        -4.3908653017        9.1475302524       27.0621177353
  C        -1.6866858978       15.3671099738       31.8177187318
  C        -1.9543946262       13.1985872302       32.8723878246
  H         6.0416529238       14.8553674467       20.1355462673
  H         7.7663388970       14.8735756946       20.2934286865
  C         6.9556438482       13.6339857359       18.8220106529
  H         3.6400054786        6.7467846543       15.9457171893
  C         3.7289820227        8.3659157738       14.7306737242
  H         3.3482879844        9.2380810562       29.2171250690
  H         2.3511738654        8.7776510182       30.6483245151
  C         3.5570925363       10.4630115630       30.9615338774
  H        -3.9480679679        8.3438681458       26.5473620073
  H        -4.7435877263        8.6033248740       27.9149986660
  C        -5.4877106870        9.6687926789       26.1173868507
  N        -1.4537270314       16.3229667620       30.7708198264
  C        -1.9285561856       16.0309011277       33.0040034311
  C        -2.1829279502       13.8651259516       34.1079998139
  H        -1.9649378970       12.1421902554       32.8155323844
  H         7.8206723357       13.0355524254       18.6666767350
  H         6.0523984082       13.1360023638       18.6860395969
  H         6.8175854591       14.3974298359       17.9796030901
  S         3.7686631364       10.0518833219       14.2645560008
  C         3.7974077423        7.3862784004       13.5755322153
  H         3.5738619792       11.3994409315       30.4178777445
  H         3.1261783424       10.6154828025       31.9326209376
  C         4.9811113605        9.8880518451       30.9016090493
  H        -6.0415791289        8.7891680063       25.7746088507
  H        -5.0902712081       10.3133536637       25.3286932170
  C        -6.5890545164       10.4804631632       26.8412312323
  S        -1.4909987338       17.8367212588       31.4378953543
  N        -1.8795037214       17.4164989779       32.9143007876
  C        -2.2089873913       15.3157527204       34.2079739127
  H        -2.4609771869       13.3558307105       35.0281428565
  C         4.1869349281        9.4242433918       12.6342082184
  N         4.1657186861        8.0712193647       12.5259393694
  O         3.5338477863        6.1596645134       13.7755765190
  H         5.5299468215       10.6418710101       31.5222649165
  H         5.3583692497        9.8305984172       29.8768640651
  C         5.1194720873        8.4922290828       31.4447807295
  H        -7.1238610909        9.7639608616       27.3774094967
  H        -6.1451467191       11.2713072265       27.4455845464
  C        -7.5465575593       11.1905171509       25.9345064261
  C        -2.5876461133       16.0322775577       35.3820478326
  S         4.4117308091       10.4709655355       11.2449515502
  C         4.3022495168        7.4420514957       11.2044645204
  H         5.5010936169        8.5616360764       32.4956864416
  H         4.1492173278        7.9812923978       31.4010357067
  C         6.1911511891        7.6484912396       30.5848976501
  H        -7.0355111593       11.8415620269       25.2034945195
  H        -8.2142098264       11.8712316137       26.5352062661
  C        -8.3528579538       10.1851260332       25.0986029742
  H        -2.2042569080       17.0134508131       35.2856959383
  C        -3.0957801870       15.6516805926       36.5479394506
  H         4.9630147701        8.0154266416       10.5951816250
  H         4.7554399720        6.4682906469       11.4130417359
  C         2.9426840559        7.2772753424       10.5749981516
  H         7.0741995092        8.2092629271       30.7356419565
  H         5.9741341305        7.6392325452       29.4957919610
  C         6.3700462811        6.2997169774       31.1153772315
  H        -8.8532233074       10.6037198239       24.1539257673
  H        -7.7966956727        9.3490987530       24.7720966691
  C        -9.5038470900        9.5866654233       25.9327264458
  S        -3.9846903140       14.1769329663       36.9184214025
  C        -3.1363500905       16.6266233843       37.6352412989
  H         3.0412974039        7.2850148361        9.4884074873
  H         2.5137917820        6.2702062423       10.8692740964
  H         2.3351551423        8.1450661522       10.8188059989
  H         5.9324845271        5.6247358160       30.3196674083
  H         5.7678209165        6.1741552705       32.0436145945
  H         7.4159769320        6.2564717570       31.1887028974
  H        -9.9358493887       10.3121491727       26.6508385391
  H        -9.1029753705        8.7240099202       26.4643887293
  H       -10.2339664725        8.9817032246       25.3933990620
  C        -4.3359165203       14.9039184344       38.5443782382
  N        -3.8741798928       16.1705382453       38.6735017397
  O        -2.7590750566       17.7909408311       37.4703797491
  S        -5.2863176658       14.1840555938       39.9031713961
  C        -4.0091619910       16.9625091541       39.9140563797
  H        -4.1358751072       17.9997878834       39.5210450680
  H        -4.7695385508       16.6796065922       40.5862450293
  C        -2.7499463836       16.7656802284       40.8109605434
  H        -2.0216809328       17.5000589324       40.4670128706
  H        -3.0182340879       16.9988117791       41.8758084709
  H        -2.3962959586       15.6975299236       40.7549341855
