352
 i =    48300, time =    48300.000, E =        24.8803148322
  H        11.2260262975        7.5074484749       32.3050688969
  C        11.1299010693        6.4162884450       32.2877408453
  H        12.0417209530        5.9170547170       31.9031455048
  C         9.9636162944        6.0642019307       31.3109923762
  C        10.8636854407        5.8514001500       33.7000745435
  C        10.3234103482        6.3348824159       29.8000283340
  H         9.8131417333        5.0188517564       31.4620445765
  H         8.9729823683        6.5092131726       31.6028076138
  H        11.6469491211        5.9998477083       34.4038348464
  H         9.9354697974        6.1355983310       34.0366797369
  H        10.8068379510        4.7704078550       33.6881661631
  C         9.5613663453        5.5879507479       28.6928465937
  H        11.3654455711        6.0335940861       29.7028498654
  H        10.3721765409        7.3897141688       29.6787533697
  C        10.1481003874        5.4397657120       27.3052632783
  H         9.3492073777        4.6186239250       29.0711503818
  H         8.6030148888        6.0711374526       28.5716378154
  C         9.1278784350        4.8677702455       26.3152911880
  H        10.8233615512        4.5366982484       27.5218602249
  H        10.7801050598        6.3466991021       27.0084340688
  C         7.9986134253        5.7339615360       25.8367079539
  H         9.7115701663        4.4738518587       25.5047742262
  H         8.7048857044        4.0298461897       26.8504640605
  C         6.7932062571        4.9533371589       25.1677149201
  H         7.5752898606        6.2223333145       26.7048170080
  H         8.3550274487        6.5757966212       25.2428080000
  C         6.4470631742        3.6373153774       25.8232760804
  C         7.3535002733        4.2181714585       23.9987983505
  C         5.5220190381        5.8492285517       24.9691582524
  C         6.8963658714        2.5415018167       25.0894631942
  C         5.8192059817        3.2607189405       27.0188097745
  C         7.4533308570        2.9105304906       23.9366118942
  C         7.9998228537        4.9065822212       22.9952521491
  H         5.7066364995        6.8214564384       24.5070434241
  H         5.3321530767        6.0177203317       26.0152093147
  C         4.2866501959        5.1472944086       24.4697683114
  S         6.7261349918        1.1464632240       25.9610136702
  C         5.9006472591        1.9397803597       27.2639807118
  H         5.4945473406        3.9928589625       27.6981071395
  C         7.8126108603        2.2498512621       22.8355092469
  H         7.8978593106        5.9682204533       23.1474311209
  C         8.4239226407        4.3485715548       21.8403200832
  H         4.5397439950        4.9057029916       23.5055428785
  H         4.0410229041        4.1097140041       24.8946036862
  C         2.9959045633        6.0427521217       24.3219287943
  C         5.6812801090        1.3479998884       28.6119944801
  C         8.3890219148        2.9681551648       21.6961226696
  H         7.8820351088        1.1453789425       22.7007517250
  C         8.8854820410        4.7049691418       20.6341203885
  H         2.1786383873        5.4895186671       23.8443253569
  H         3.1664138881        6.9512714493       23.7647175754
  C         2.5475616275        6.3970170335       25.7339464310
  C         5.6797064594       -0.0379173343       28.8749573227
  C         5.4959631868        2.2733803659       29.8149848376
  C         8.8697978597        2.2586208473       20.4293892077
  C         9.1912629880        3.6310747444       19.8081378734
  S         9.0927323953        6.1894614109       19.8476144109
  H         1.6617279791        7.0978490380       25.7021796051
  H         3.3775939204        6.8368490362       26.2675176406
  C         2.2328849340        5.1888521583       26.6487480552
  N         5.9290214514       -1.0281938295       27.9302961519
  C         5.6143534303       -0.5705258323       30.1849498446
  C         5.3207758762        1.7786933727       31.0689892627
  H         5.1988453270        3.2737903544       29.6597552393
  C         7.7016973376        1.5085060594       19.6401970287
  C        10.0872129790        1.3617472631       20.6177278573
  C         9.6452314238        4.0670189978       18.5442656370
  C         9.6970498797        5.4257141073       18.4047462161
  H         1.6240943994        4.5689877080       26.0006780427
  H         3.0496389176        4.5279218464       26.9825019845
  C         1.3734119796        5.6155894123       27.7824753638
  S         6.0525547561       -2.4522981231       28.6615818257
  N         5.8253777950       -1.9669822947       30.1918947072
  C         5.3770314448        0.2951232913       31.3212305135
  H         4.9757327814        2.3990828850       31.8079800796
  H         7.3631042387        0.6841044389       20.2090811903
  H         8.0816664382        1.1080674836       18.7268960916
  C         6.5075433085        2.3698872822       19.3943835401
  H        10.1832072509        0.6880845052       19.7348534082
  H         9.8560505176        0.6469407632       21.4725624976
  C        11.4285405859        2.0593229380       20.9291964348
  H        10.0361156177        3.3350396975       17.9403454828
  C        10.0714902447        6.1546333440       17.1494413108
  H         0.7695002091        4.7776906034       28.1848755635
  H         0.6732883588        6.4091358561       27.5792113553
  C         2.2772807408        6.1104356306       28.9072247026
  C         5.1475346852       -0.2833004574       32.6205624634
  H         6.7615987890        3.0686700334       18.6298881988
  H         6.2688507927        2.9354586382       20.2331212802
  C         5.3958073899        1.6238544256       18.6097948652
  H        11.2229400125        2.4507086633       21.9224716363
  H        11.6147579385        2.7900306769       20.1308541157
  C        12.6152478164        1.1054915890       20.9075358666
  C        10.0927235894        7.5784569761       16.9794562333
  C        10.4382078969        5.3342031465       15.8728449494
  H         3.1939741096        5.4542604080       28.8178869980
  H         2.6504099499        7.1001284237       28.5566353813
  C         1.7357068399        6.3358460785       30.2809405120
  H         5.1283870750       -1.3508951184       32.4955465640
  C         4.8191733502        0.1669693112       33.8986327912
  H         4.9829044652        0.9226292033       19.3104257078
  H         5.7863194776        1.1743631264       17.7831758716
  C         4.2159854381        2.5000041817       18.0353713371
  H        12.7556388651        0.8561000785       21.9244992744
  H        12.3460871740        0.2410976810       20.3168444816
  C        13.9036080268        1.6846499628       20.4004130921
  N         9.7198793490        8.5288708564       17.9906125488
  C        10.3677013887        8.1965689523       15.7881227646
  C        10.7642722409        6.0444446941       14.7395225939
  H        10.3718390193        4.2771158072       15.9350359977
  H         1.3010365238        5.4961641297       30.7770061322
  H         2.4782350687        6.9048425548       30.8285184357
  H         0.9961889107        7.0898626014       30.1030261024
  S         4.5127125872        1.7972836898       34.2938878078
  C         4.5305946827       -0.8184625094       34.9964303191
  H         4.0375184842        3.3384325724       18.7151328550
  H         4.6266864228        2.9284904156       17.1311594928
  C         2.9206841489        1.7437688875       17.7324179529
  H        13.6269960607        2.3235245552       19.5443319964
  H        14.4470794615        0.8198506875       19.9793278647
  C        14.6740695680        2.4361132065       21.4453024399
  S         9.6519265837       10.0252767191       17.2854377622
  N        10.2523823130        9.5726395639       15.8574287069
  C        10.7786799049        7.4967748504       14.6551461327
  H        11.0970833228        5.5278858520       13.8895597639
  C         4.2303790192        1.2747342818       35.9648754589
  N         4.2397986080       -0.0851725667       36.0978579147
  O         4.6095793012       -2.0411881805       34.8307983452
  H         2.3873513479        2.1459050948       16.8425107325
  H         2.2099414046        1.9783880968       18.4939942263
  C         3.0613517113        0.2245527956       17.6780313365
  H        15.2976932353        3.0929818883       20.9100649363
  H        13.9636847346        2.9216157641       22.0930227562
  C        15.6073665857        1.4320629391       22.1279577588
  C        11.0450787025        8.2678665546       13.4862548161
  S         3.6253894255        2.3706423561       37.1528229048
  C         4.1790700769       -0.6761742985       37.4353627788
  H         3.9143970267       -0.2000057981       17.0220949850
  H         3.2491632211       -0.1468498894       18.6955066406
  C         1.7886301259       -0.5696375497       17.2712974598
  H        16.1381189650        0.8569521515       21.3731085452
  H        14.9919683246        0.7373094491       22.6816757646
  C        16.6095346244        1.9586812840       23.1490057494
  H        10.6193360662        9.3136635007       13.5023771901
  C        11.6684850425        7.9676226660       12.3101474367
  H         3.5214725379       -0.2595404208       38.2218324911
  H         3.6712888173       -1.6629103834       37.1881379514
  C         5.5422374335       -0.8469176568       38.0176254370
  H         1.3653208364       -0.1993036408       16.3808429348
  H         1.0341811937       -0.4745315759       18.0506024139
  C         1.9712026146       -2.0997504959       17.0829073249
  H        16.2607658311        2.9275141440       23.4875283705
  H        16.7107331315        1.2987948583       24.0598962639
  C        18.0699935749        2.0680565047       22.5462846572
  S        12.2927850269        6.4133040665       11.8466181453
  C        11.6760827532        8.9946733040       11.2582030252
  H         5.4385587708       -0.9917691799       39.0802807873
  H         6.0378276763       -1.7526283590       37.5714927279
  H         6.2657488223       -0.1192040647       37.7855703280
  H         1.3992213673       -2.6182999932       17.8179762800
  H         3.0507784110       -2.3906411905       17.1294854362
  H         1.7513278581       -2.2457000995       16.0364332623
  H        18.3790174608        1.3578444725       21.7225415843
  H        18.7989622892        1.7430801168       23.2124697618
  H        18.2757114723        3.0970233782       22.2341795977
  C        12.5043614902        7.1408637825       10.2754059598
  N        12.2501604310        8.4789493931       10.1586849014
  O        11.0720058091       10.0440336168       11.2545951054
  S        13.0682346424        6.2480833293        8.8041393301
  C        12.4798266901        9.2263677906        8.9481120757
  H        12.7096400868       10.2140915393        9.2193971612
  H        13.3762788780        8.8499813015        8.4880055617
  C        11.1972972636        9.2380112098        8.0661985993
  H        10.4952780972        8.3676554913        8.2140909340
  H        10.5342799503       10.1335213855        8.3434780153
  H        11.4262111240        9.2316284171        6.9668825132
  H        -1.6119651285       13.2786148256       16.3463836498
  C        -1.8154663336       14.2643743869       16.1037455785
  H        -0.8666636311       14.7199658494       15.6388921701
  C        -2.2615356613       15.1166905265       17.3341227513
  C        -2.9350168418       14.0465438441       15.0424890874
  C        -2.8624214398       14.2882160091       18.4343798248
  H        -1.3312242637       15.5087136034       17.6904136002
  H        -2.9878007161       15.8797511632       17.0054779059
  H        -3.0846884853       14.9491307072       14.5269061020
  H        -2.4403924364       13.4242030317       14.2842274788
  H        -3.7349853295       13.4928380869       15.5763454775
  C        -1.8309465807       13.5635154626       19.3424795860
  H        -3.3868627938       13.5063278841       17.8693550415
  H        -3.5949851311       14.8123993780       19.0385845031
  C        -2.2899547216       13.5991860295       20.7941439655
  H        -1.6914978694       12.5578767313       18.9368371034
  H        -0.9306708740       14.0381263318       19.1558260890
  C        -1.2681949304       12.9455510103       21.8327120439
  H        -3.1599139990       13.0190343571       20.8162090317
  H        -2.5889157261       14.5996269022       21.0541558937
  C        -0.1275624456       13.9203941649       22.2417062533
  H        -1.7470644912       12.6202589137       22.7896322422
  H        -0.9259400223       11.9752611467       21.3920874739
  C         0.8588787294       13.3007630806       23.2455777048
  H         0.3447105221       14.1867990102       21.2812962663
  H        -0.4252065304       14.7512058034       22.6946171592
  C         1.3210921596       11.9893116560       22.5313683780
  C         0.3914588317       12.5709434402       24.4070243285
  C         2.1066912209       14.1710686197       23.6199857585
  C         0.8899193750       10.8603781504       23.2170808539
  C         1.7961724538       11.6551480579       21.3166517250
  C         0.3566355812       11.2480670471       24.4241094451
  C        -0.1424184527       13.1289997908       25.5756518028
  H         2.4278279425       14.7693719593       22.7931616381
  H         1.8377678169       14.7612875916       24.4420571949
  C         3.2988407385       13.3011437841       23.9289053607
  S         1.3418871278        9.3815070724       22.4166875776
  C         1.9545140576       10.3227035944       21.1294851234
  H         1.8964939000       12.4382325218       20.5371773147
  C        -0.1222273149       10.6184552203       25.4995538385
  H        -0.2006548896       14.2258697056       25.5936730798
  C        -0.6254790512       12.5163432827       26.7098042121
  H         3.5435548475       12.8401681822       23.0594492711
  H         3.0056735392       12.6173162927       24.6983129111
  C         4.5877758072       14.1170285418       24.2500369723
  C         2.5058216104        9.5976066528       19.9123285067
  C        -0.5283118385       11.1501888141       26.7438801511
  H        -0.0387897519        9.5244669750       25.4446566217
  C        -1.0414180092       12.8474063215       27.9466623718
  H         5.2681093246       13.4383907147       24.8043822955
  H         4.3500063660       14.9608819405       24.8741125932
  C         5.4096353843       14.5975916703       23.0246264345
  C         2.4582288047        8.2126811745       19.6634602042
  C         3.1519741233       10.3598704393       18.8150788153
  C        -0.8328330837       10.4139037661       27.9828703266
  C        -0.9307221633       11.7008019445       28.7838081920
  S        -1.2479512394       14.2670502113       28.8161846423
  H         5.9747447967       15.5041523739       23.2891296150
  H         4.7368501030       15.0153764808       22.3175676630
  C         6.2890798571       13.5011575956       22.4187360454
  N         2.1027515959        7.1996862114       20.5575516851
  C         2.8232936790        7.6778009196       18.4181198548
  C         3.5071661673        9.7993865766       17.6260172427
  H         3.1467394024       11.4275502734       18.8686051278
  C         0.2810577246        9.6056655105       28.5041843283
  C        -2.1003734046        9.5514714662       27.9262750480
  C        -1.2459384073       12.0354137521       30.0910389664
  C        -1.2716178590       13.4162241196       30.2988624550
  H         7.2418062950       13.2228793493       22.9110140517
  H         5.7468650781       12.5964148993       22.5351571894
  C         6.4956803215       13.8810905983       20.9618470846
  S         2.1304423269        5.7908000489       19.7109681928
  N         2.6621683185        6.2889216018       18.3114387541
  C         3.2011186555        8.3556790971       17.2892883077
  H         3.7642095631       10.5423616153       16.8524372099
  H         0.3567924111        8.7323395902       27.9283681931
  H         0.0094555598        9.3094290403       29.5026178633
  C         1.5597665815       10.3241223915       28.5736787371
  H        -2.0062500767        8.6656804006       27.2762358061
  H        -2.1660150569        9.1668948072       28.9752718983
  C        -3.3794059271       10.3919692271       27.5732865598
  H        -1.2844772351       11.2996092257       30.8737539361
  C        -1.5824684610       14.0558255059       31.5746600221
  H         7.5822277075       14.0683080552       20.7853404227
  H         6.1123398298       14.8479608147       20.7313900806
  C         6.0397019406       12.7902012748       19.9886643176
  C         3.3473551903        7.6856375135       16.0561345197
  H         2.3424684417        9.6195504045       28.2357622379
  H         1.7346189451       11.1845854381       27.9616257094
  C         2.0168010640       10.5871977670       30.0180128427
  H        -3.1471301881       11.0557671693       26.6873660284
  H        -3.5330820726       10.9630881895       28.5133392792
  C        -4.6018557182        9.5055139436       27.3303131316
  C        -1.7767206702       15.4206683684       31.7553510154
  C        -1.5832956813       13.2560626890       32.8122111279
  H         6.6024141008       11.9241738394       20.1188684105
  H         5.0079352569       12.5493951826       20.1940051268
  C         6.0904511777       13.3250135540       18.5936032235
  H         3.2923585765        6.5928256082       16.0143441272
  C         3.5518173251        8.1929550972       14.8083518484
  H         1.9429425397        9.6229748045       30.5640647951
  H         1.3084557191       11.2227537354       30.6718239765
  C         3.4307638982       11.1307647413       30.0798718160
  H        -4.3365404166        8.7735589531       26.5736900460
  H        -4.6947930699        8.8469029720       28.2411905775
  C        -5.8340951225       10.3658400073       26.8935483053
  N        -1.8475807614       16.4347598990       30.7877491844
  C        -1.9395905237       15.9423830119       33.0393188305
  C        -1.8973219526       13.7623994459       34.0660429424
  H        -1.3910783590       12.2295281283       32.7058102275
  H         5.2148592044       13.9296164151       18.3174872437
  H         7.0465087092       13.8797794866       18.3457038276
  H         6.0535516714       12.4315956889       17.9299851725
  S         3.8344505631        9.8381746690       14.3276007060
  C         3.7043477724        7.1959483185       13.7479024696
  H         3.9389281581       10.9403061131       29.1506593787
  H         3.4096226550       12.1974660703       30.2363651425
  C         4.2499451844       10.5844979252       31.2923213844
  H        -5.4260964395       11.2542540434       26.3653935289
  H        -6.1294643726       10.8063355741       27.8551305510
  C        -6.8498155160        9.5950524464       26.0692032502
  S        -1.7990697217       17.9199029251       31.5553060585
  N        -1.9275169757       17.3214073355       33.0523083790
  C        -2.0149126571       15.2192833201       34.2574341422
  H        -2.0715197876       13.1126877343       34.8949609613
  C         4.1628969578        9.1268319350       12.7366980254
  N         4.0837914734        7.8041417900       12.6311649043
  O         3.5017586734        5.9831817704       13.8817310137
  H         3.7409443762       10.8701127200       32.1759802287
  H         5.2378152139       11.1155609781       31.3000651722
  C         4.4949814443        9.0639575909       31.2092061949
  H        -6.3594329788        8.7658041568       25.5049258068
  H        -7.5170583876        9.0557534599       26.7705385880
  C        -7.5945669961       10.5610702284       25.1667429912
  C        -2.3953101103       15.9207256106       35.4206812287
  S         4.7795086409       10.0304119990       11.3384318547
  C         4.2701196202        7.1163042019       11.3378025659
  H         3.7215511911        8.6915410865       31.8960000347
  H         4.2169474321        8.6991344410       30.1898527865
  C         5.9261454189        8.6261262128       31.5210517796
  H        -6.9076453983       10.8744999255       24.4373911118
  H        -7.8450843123       11.4643468371       25.7076941953
  C        -8.8503949174        9.9397858777       24.5654588745
  H        -2.1614555763       16.9850398021       35.4155646499
  C        -3.0554859186       15.5045505241       36.5549734517
  H         4.9343996845        7.6338328856       10.5964769159
  H         4.7094194503        6.1301872014       11.4680759542
  C         2.8499697026        6.9289717956       10.7881512993
  H         6.3121273501        8.9945081931       32.4961348812
  H         6.5909304163        8.9165928746       30.7637167876
  C         6.0303171367        7.0597254565       31.6449757647
  H        -9.1878901661       10.4204046837       23.6293411644
  H        -8.6625649533        8.9266119849       24.1746813315
  C        -9.9660004785        9.7516318625       25.5682855900
  S        -3.5855235488       13.8727286224       36.8478134499
  C        -3.2834062254       16.4307274539       37.6770857080
  H         2.0891787093        6.3773162397       11.3980491619
  H         2.3960593798        7.8198678674       10.4954000605
  H         3.0558841763        6.4007394264        9.8557429911
  H         5.0437048973        6.5782675976       31.4371179592
  H         6.4623803917        6.6916351860       32.6096039493
  H         6.6826132163        6.5144917528       30.9031024757
  H       -10.9502159390        9.5553219502       25.1101118603
  H       -10.0819368064       10.6193895238       26.2301874766
  H        -9.7344312779        9.0701532195       26.3627377504
  C        -4.0287331035       14.4025882218       38.4635546502
  N        -4.0317393036       15.7576517226       38.5427461607
  O        -2.9625473182       17.5985826968       37.7376038686
  S        -4.6065578962       13.4082020451       39.7997036384
  C        -4.3664774496       16.3783036103       39.8995634757
  H        -4.6241041175       17.3621481953       39.7299880153
  H        -5.3016178797       15.9740080399       40.2647649595
  C        -3.1581286272       16.3867147612       40.9122141796
  H        -3.0067804227       17.3134804866       41.4311583837
  H        -3.5386813889       15.6893242181       41.6683541132
  H        -2.2549346732       16.0915012952       40.3619656619
