352
 i =    93500, time =    93500.000, E =        25.3535843144
  H        10.3914343398        6.8138755834       31.4558918893
  C        11.2993950989        6.7174000492       31.9312117622
  H        11.6586156903        7.6656503914       32.2513545864
  C        12.2458886963        6.0177746786       30.9435172366
  C        11.0098768682        5.9338197357       33.2270044639
  C        11.6334486740        5.0760927342       29.8939231622
  H        12.7111260795        6.8546724856       30.3586675151
  H        12.9794613210        5.4536276109       31.4541143967
  H        11.9843448134        5.8517687190       33.7858746387
  H        10.2972035593        6.4486489568       33.8922865808
  H        10.6267480087        4.9332819695       32.9410627440
  C        10.8020985274        5.9445854378       28.9355184463
  H        11.0480140728        4.2629904137       30.4105312093
  H        12.4879698610        4.6096882654       29.3594369068
  C        11.1201118544        5.5831287840       27.4092244270
  H         9.8029626652        5.6494319035       29.2060216588
  H        10.9359903596        7.0666960745       29.1737598040
  C         9.9497740575        5.0900636032       26.5998607843
  H        12.0340708828        4.9305732974       27.2354760483
  H        11.3479924688        6.5255609737       26.9392438763
  C         8.6707580724        5.9464071573       26.2409383321
  H        10.3621869248        4.6633234869       25.6217153590
  H         9.6480617916        4.1630559851       27.0689387555
  C         7.5463491661        5.1870371890       25.5308648390
  H         8.2351306374        6.3142365011       27.1641091145
  H         8.9584224723        6.7414194723       25.6055537193
  C         7.2988112000        3.7556327066       26.1530108842
  C         8.1082565859        4.5062637127       24.2947722914
  C         6.3233172745        6.0129688337       25.1268533794
  C         7.6423217025        2.7223806877       25.3116353388
  C         6.6630740719        3.2745546441       27.2998324854
  C         8.1682281737        3.1835501158       24.1286245044
  C         8.6629640385        5.1926959948       23.2127753899
  H         5.8979081529        5.5035410073       24.2114736916
  H         6.7225031913        6.9580276741       24.7313616841
  C         5.2401603857        6.2762914075       26.1940920488
  S         7.3614374297        1.2052826637       26.0428446980
  C         6.6518701550        1.9071925972       27.4670901977
  H         6.3023780614        3.9881117658       27.9943393205
  C         8.5491722908        2.5908044944       23.0174457065
  H         8.7435503382        6.2532400767       23.2862303399
  C         9.0570512787        4.6490840841       22.0576719803
  H         5.2319119387        5.5954540945       27.0234029952
  H         5.3144585802        7.3153425456       26.5345101434
  C         3.8353831294        6.3085251141       25.5621870094
  C         6.1452286833        1.2407466436       28.7324581820
  C         8.9771147201        3.3064894521       21.9124966888
  H         8.5036001264        1.5415983392       23.0543149206
  C         9.4495870509        5.0893834177       20.8286235537
  H         3.6241634128        5.4265009540       24.9675452446
  H         3.7592466085        7.0846394321       24.9460753704
  C         2.8531822328        6.4042656485       26.7099970619
  C         6.1377036706       -0.1442040462       29.0118814064
  C         5.8188067283        2.0715639979       29.8324780317
  C         9.3043028211        2.6461884910       20.6189217773
  C         9.5705690532        4.0048724993       19.9636616893
  S         9.5918925794        6.5788446874       20.0254989021
  H         2.0006421811        7.0000447277       26.3965665776
  H         3.3229915401        6.9280244890       27.4400454292
  C         2.3593284446        5.0846208718       27.1803909675
  N         6.7153466752       -1.1016719025       28.1257761601
  C         5.8906816536       -0.6981222920       30.2508966125
  C         5.4627364237        1.6010499167       31.0907372930
  H         5.8506808063        3.0932639450       29.7494454922
  C         8.0796402367        1.9590947296       20.0525645231
  C        10.5736112722        1.7173588401       20.7787960759
  C         9.9746734454        4.4019959680       18.6559262536
  C        10.1190663209        5.7469824658       18.5075772279
  H         1.9250162940        4.5707541590       26.2963109439
  H         3.1764592756        4.4579304225       27.6211514811
  C         1.1944278570        5.1299299276       28.2221854079
  S         6.9072494743       -2.4876613948       28.9084136328
  N         6.1484393603       -2.1257094785       30.2947249186
  C         5.4206214008        0.1090656629       31.3346993424
  H         5.4429789018        2.2633158699       31.9069974235
  H         7.7606585740        1.1815117503       20.7439901400
  H         8.3632715256        1.3208727026       19.2370933007
  C         6.9503832802        2.9075384078       19.6994562066
  H        10.8549191250        1.4006278394       19.7441095669
  H        10.3001847178        0.8110743843       21.3171761659
  C        11.8060887487        2.4456239799       21.3689299515
  H        10.1928757381        3.6789001183       17.8213775440
  C        10.4028354494        6.4790162208       17.2489175774
  H         0.7889517550        4.1520849713       28.4395077784
  H         0.4163576441        5.6557100100       27.7408490932
  C         1.5536222402        5.7520782821       29.5499255355
  C         5.2695448120       -0.4278377005       32.6798759694
  H         7.2909873285        3.4899695572       18.9516523805
  H         6.6093905620        3.4386418365       20.6329706431
  C         5.7544027147        2.1159456812       19.1705248709
  H        11.5580761739        2.9147890964       22.3313371586
  H        12.0301658361        3.1677960374       20.6043825770
  C        13.0792252267        1.6124007945       21.6219390748
  C        10.4223722742        7.8772790409       17.0931314277
  C        10.7388124080        5.7437614358       16.0170862596
  H         1.8170124872        6.7936171316       29.5634052384
  H         0.7000923468        5.6320969567       30.1100154682
  C         2.6452664701        5.0179244929       30.4130277720
  H         5.1417305576       -1.4939838319       32.5847381481
  C         4.9127715110       -0.0177225644       33.9076112851
  H         5.7011491447        1.1436673161       19.5881463512
  H         6.0335995697        1.9372052623       18.1459616034
  C         4.4541239166        2.8542348801       19.1903782431
  H        12.9529269519        0.7455230194       22.3383340315
  H        13.4128957019        1.1163577500       20.7436453281
  C        14.2235039382        2.4197412170       22.1672898799
  N        10.2123926628        8.7513786268       18.1529172766
  C        10.8293976004        8.5246827797       15.9611520005
  C        11.0560162287        6.3834640700       14.8098819547
  H        10.7161503999        4.6909074578       16.0106642742
  H         3.0396398053        5.7106402975       31.1650935570
  H         2.2980862182        4.1293380447       30.9806735420
  H         3.5144215338        4.6667187766       29.8812513341
  S         4.6420834966        1.5926959532       34.3353554604
  C         4.8661785195       -1.0249638962       34.9586759947
  H         4.4690343717        3.4613315825       20.1444205488
  H         4.4086894080        3.7308793911       18.4902734199
  C         3.2721159571        1.8348720731       19.0695668221
  H        13.7720721989        2.9174913280       23.0646653722
  H        14.4260023624        3.2888339277       21.4520934189
  C        15.5116256287        1.7406508870       22.5194752280
  S        10.4313470235       10.2831180183       17.6485799320
  N        10.9763522259        9.9317283335       16.1973435874
  C        11.1355266283        7.8720261678       14.7637126929
  H        11.3133125037        5.7597179144       13.8817730426
  C         4.3448846064        0.9498564114       35.9658860157
  N         4.4633063242       -0.3711335131       36.0782303278
  O         5.2285413759       -2.2160440238       34.9049300237
  H         2.4010768083        2.3889729850       18.8480944034
  H         3.0531287300        1.3619365315       20.0517781767
  C         3.3205156034        0.6920326458       18.1223329493
  H        15.3993903715        0.6852261026       22.7567142105
  H        16.1106762473        1.8630829828       21.6360987853
  C        16.2331280852        2.5268071686       23.6634318418
  C        11.4931520167        8.6882965970       13.5768124404
  S         3.9833893633        1.9026545562       37.4244576677
  C         4.4558181818       -1.1065264663       37.3716900424
  H         2.9143402949        1.1285307192       17.2078498069
  H         4.3886407523        0.3943849449       17.8513463545
  C         2.3254437393       -0.3934681911       18.6050603899
  H        15.5931900673        2.6371507457       24.5544368959
  H        16.6131226822        3.5263993854       23.3923316568
  C        17.4953302348        1.7949248557       23.9494102784
  H        11.1277731691        9.7663998496       13.7267427750
  C        12.0246851714        8.4150245344       12.3608627758
  H         3.8411925575       -0.6122922807       38.0572106804
  H         3.8597485585       -2.0862984753       37.2333533895
  C         5.8636838855       -1.2285308909       37.8473829853
  H         1.2709847963       -0.0937783236       18.6707762206
  H         2.6289650843       -0.7377623910       19.5430011525
  C         2.3919339587       -1.5740028337       17.7100044729
  H        17.9316614385        2.4109590776       24.6780895394
  H        17.2752699858        0.8299094017       24.3389323234
  C        18.4454553217        1.7436829933       22.7793062150
  S        12.5448677235        6.9038079886       11.8694901438
  C        11.9639663685        9.4504128006       11.3264917639
  H         6.6001324816       -0.4615692348       37.4432136857
  H         5.9284832832       -1.2298480357       38.9884893400
  H         6.2754488932       -2.2181360632       37.5988443037
  H         3.4030787106       -1.9244893678       17.6583162865
  H         2.0154283247       -1.4587772644       16.6484018769
  H         1.8554528683       -2.4836807254       18.0769327319
  H        19.2519614252        1.0676114180       23.0592779536
  H        18.7151887120        2.7260831613       22.3613478669
  H        18.0486392672        1.1463911702       21.9258505570
  C        12.6937045892        7.6757698637       10.2791940006
  N        12.4454403895        8.9729121690       10.1928438047
  O        11.4631610443       10.5819607507       11.4540024155
  S        13.0554625916        6.6970052069        8.7873997100
  C        12.4482845489        9.7405843067        8.9830980681
  H        12.4692736833       10.7935111149        9.2559927263
  H        13.2847832733        9.5419573922        8.3231016126
  C        11.0864786486        9.6201870821        8.2971868535
  H        11.1909686149        9.9911014260        7.2890936936
  H        10.9647005547        8.5817704515        8.0807736941
  H        10.2941403543       10.0561505211        8.8422443516
  H        -3.1190901920       14.8547741734       16.4944123268
  C        -2.8934017046       13.7308890183       16.4513520005
  H        -3.8618714280       13.3074664681       16.7817234206
  C        -1.7309073602       13.4445853864       17.4156508547
  C        -2.7099968209       13.2449085443       15.0065815588
  C        -1.8380939962       14.0107367403       18.8652218068
  H        -1.5561541316       12.3813324268       17.5177256798
  H        -0.8570296341       13.9362459563       17.0714153241
  H        -1.8086587483       12.6912357479       14.9960942670
  H        -3.5978924089       12.5919074229       14.8573632632
  H        -2.7738959835       14.0498481673       14.3234061682
  C        -1.9408087818       12.9114695108       19.8767147475
  H        -2.6374834731       14.8291549201       18.9356843501
  H        -0.9341496914       14.6063411729       19.0502280896
  C        -2.2940019697       13.4519737126       21.2371815758
  H        -2.4472997120       11.9657610084       19.6684487166
  H        -0.9638386189       12.5218070747       20.0038852228
  C        -1.3624320027       12.8246143632       22.3417329834
  H        -3.2253945189       13.0364883113       21.5524512820
  H        -2.3882853388       14.5175025651       21.3248458223
  C        -0.1071195905       13.6700852000       22.4464089863
  H        -1.8187985805       12.8048423117       23.3025315489
  H        -1.0417326566       11.8021762282       22.0795846758
  C         1.0480016368       13.0739086997       23.2432548864
  H         0.1735230862       13.8330273073       21.4253774870
  H        -0.4492708267       14.5463992204       22.9254930160
  C         1.4566521519       11.6992052735       22.6035076293
  C         0.6995905755       12.3630144810       24.5032053914
  C         2.2587457082       14.0222771120       23.2914071714
  C         1.3505018166       10.5826525001       23.4463538226
  C         2.0617705524       11.3647219395       21.3865567479
  C         0.8626036172       11.0370811757       24.6330320623
  C         0.2331314821       13.0740510252       25.6881612722
  H         2.5898977592       14.2844538963       22.2916296672
  H         1.9423128141       14.9425554970       23.8319164723
  C         3.4388562074       13.4261896032       24.0339889780
  S         1.9501378422        9.1723989908       22.7623796148
  C         2.4194715396       10.0771607894       21.3135736861
  H         2.1878482921       12.0528736155       20.5895814229
  C         0.5578863258       10.4712521939       25.8096083980
  H         0.1158703630       14.2069735817       25.6729343630
  C         0.0278126094       12.3947919863       26.8540523611
  H         3.7348237963       12.4133692878       23.6488413360
  H         3.1035911908       13.3427371154       25.0061541795
  C         4.6449215502       14.2904358868       24.1762521664
  C         2.9744776322        9.4793330402       20.0760958897
  C         0.1076034711       11.0619606362       26.9162732813
  H         0.7006614407        9.4362005817       25.9434460562
  C        -0.3167546324       12.7102498643       28.1301932930
  H         5.3802099561       13.7811031054       24.8937019254
  H         4.3532975072       15.2155465723       24.6992529738
  C         5.5687532243       14.6923646730       23.0239986925
  C         2.9826150035        8.1070076219       19.7416971924
  C         3.2831803578       10.4375827410       18.9055593425
  C        -0.2362422310       10.2964061044       28.1726319467
  C        -0.5177444895       11.5615424791       28.9002475897
  S        -0.5937455714       14.1581170124       28.9230694013
  H         6.2622976106       15.3607753719       23.5881386599
  H         5.1133528666       15.3411809132       22.3353168425
  C         6.4132245596       13.5028343703       22.5737064889
  N         2.6542604778        7.0361287038       20.6255069098
  C         3.2998905979        7.6052394912       18.4722142302
  C         3.5979985992        9.8450349005       17.6479314937
  H         3.3709694752       11.5547514690       18.9171786067
  C         0.8998783316        9.4552509029       28.7412083207
  C        -1.5670181493        9.4391836564       27.9876281046
  C        -0.9118784295       11.8812416082       30.2208223680
  C        -0.9403061498       13.2584995342       30.4427215128
  H         7.4613551688       13.6422618310       22.9125675144
  H         6.1100702372       12.5285782701       22.9927571796
  C         6.4806272716       13.3556730875       21.0412039107
  S         2.6534832329        5.6292885864       19.8505455015
  N         3.1950854080        6.2125427654       18.4280344201
  C         3.5983660754        8.3768900755       17.3391340538
  H         3.8148340081       10.5814950680       16.8165259013
  H         0.8658578130        8.4881690127       28.2482572296
  H         0.5130349295        9.2935585910       29.7862377404
  C         2.2044722520       10.1556323025       28.9456191365
  H        -1.3743682009        8.6854448467       27.2076314084
  H        -1.7383880235        8.9030007295       28.9201172785
  C        -2.7973004980       10.2417082041       27.3654678779
  H        -1.1412973654       11.1102479920       30.9414483657
  C        -1.2337634445       13.9058257925       31.7490606197
  H         5.8740744029       14.1469585681       20.6312920180
  H         6.0196607633       12.4284551272       20.7171600579
  C         7.8838905787       13.3867442823       20.5079194124
  C         3.8094967908        7.7641747766       16.0761049576
  H         2.6496408717       10.5564887528       27.9889077262
  H         2.0038587462       11.0423475759       29.5395942784
  C         3.2503289687        9.2723397047       29.6984451647
  H        -2.4071972506       10.7394892598       26.4488762075
  H        -3.0585684071       11.1149057867       27.9352992609
  C        -3.9709362750        9.3492759741       27.1433128273
  C        -1.4179873590       15.3154026539       31.9984821329
  C        -1.4914222977       13.0227184986       32.9307292887
  H         8.4593973250       14.1590815945       21.0118443902
  H         8.2412131492       12.3572382324       20.7471805472
  C         7.8032481763       13.7084440110       18.9823221911
  H         3.7709120036        6.7109238442       15.9465854848
  C         4.1361849349        8.2793190723       14.8379306544
  H         3.3052777132        8.3177379608       29.1826552416
  H         2.9686531321        9.2992574123       30.7266825756
  C         4.5225748373       10.0385271969       29.5808402357
  H        -3.7690548143        8.5340497335       26.4172700288
  H        -4.3246005646        8.9144653468       28.1115949746
  C        -5.0511855778       10.2611662397       26.5354518515
  N        -1.0891811392       16.2898746187       31.0690581088
  C        -1.8264694378       15.7871519488       33.2077845545
  C        -1.8093508696       13.5512374367       34.1817984179
  H        -1.6113598689       11.9579500078       32.8564698943
  H         8.2108315703       14.6965570551       18.6824171086
  H         8.4160059895       13.0482993797       18.3648237434
  H         6.7460256711       13.7064221723       18.7600569751
  S         4.5998067671        9.9030158597       14.3831175965
  C         4.0453874640        7.3334494182       13.6680749666
  H         4.7908784386       10.0904167530       28.5542016171
  H         4.2053869586       11.0482121241       29.9634733357
  C         5.7128775787        9.3547211236       30.3102809771
  H        -4.5616935771       10.8246375562       25.6887818267
  H        -5.3948936508       11.0293270041       27.2234618759
  C        -6.2086936376        9.5442860178       25.9205841833
  S        -1.4614780628       17.7678902121       31.7264880760
  N        -1.9732764756       17.1786444161       33.1960539501
  C        -2.1089241711       14.9988389384       34.3238435954
  H        -2.0446760978       12.9178646211       35.0177572658
  C         4.6649245219        9.2671792145       12.7045083578
  N         4.4677061021        7.9211507283       12.5308531069
  O         3.8352673133        6.1061566802       13.7858889682
  H         5.3381647228        9.2228426174       31.3433959277
  H         6.6210555049        9.9598069479       30.2714856031
  C         6.2361906018        8.0645416151       29.6776318133
  H        -5.7440681818        9.0813704941       25.0871320655
  H        -6.7389409451        8.7398135599       26.4131422106
  C        -7.1068448240       10.6683281379       25.4208530272
  C        -2.4953702518       15.7075511799       35.4803932575
  S         5.1290794422       10.2085359442       11.3095139296
  C         4.5839721504        7.2033604551       11.2861415756
  H         5.8766214910        8.1482811842       28.6752265117
  H         7.2781218289        8.1456877917       29.5481088006
  C         5.9195713022        6.8341506862       30.5193464756
  H        -7.5450508222       10.5031443456       24.4443219381
  H        -6.6924639829       11.6694044594       25.3092619981
  C        -8.3233587632       10.7161549883       26.3228246410
  H        -2.0965450632       16.6837956555       35.5072050326
  C        -3.0255623071       15.2885558814       36.6750631354
  H         5.2993378939        7.5969407651       10.5997518283
  H         4.8964798222        6.2471885385       11.4444643933
  C         3.2235828974        7.2097078571       10.5053399345
  H         5.6022304490        6.0261743525       29.8785602101
  H         4.9788284779        7.1344912881       31.0992951953
  C         6.8773037137        6.2924598757       31.5232362817
  H        -7.8924250504       10.5223630431       27.3162663945
  H        -8.8239218264       11.7122094690       26.3396437257
  C        -9.3525535846        9.6986344973       25.9125980931
  S        -3.4079299818       13.6419698933       37.1316564377
  C        -3.3388136882       16.3716187142       37.6459447220
  H         3.3048210236        6.6929253306        9.5715791249
  H         2.3805098203        6.7281381844       11.1074671673
  H         2.8648736754        8.1893304718       10.2211082304
  H         7.0839202152        7.0899369034       32.2777558461
  H         7.7568511510        5.8824967782       31.1531413856
  H         6.4676195926        5.4207116561       32.0857613383
  H        -9.0616615743        8.7669035538       26.3598465097
  H        -9.3999430133        9.5893839018       24.8258187930
  H       -10.3101895277       10.0022493690       26.2442633228
  C        -3.9303320495       14.3890875232       38.6698964526
  N        -3.8642522938       15.7606624886       38.7561327849
  O        -3.0514964607       17.5790263532       37.5443086353
  S        -4.5048935016       13.5490617976       40.1543858987
  C        -4.1080745050       16.6277916560       39.9340614255
  H        -4.4497473801       17.6475689117       39.6906467627
  H        -4.9705302869       16.2425235329       40.4840670598
  C        -2.7526366471       16.6929013300       40.6398283068
  H        -2.9514558783       17.0290894444       41.6405274337
  H        -2.1598633727       15.7682065274       40.5831031578
  H        -2.1148252875       17.4890699747       40.3311164835
