352
 i =    27500, time =    27500.000, E =        24.5967859291
  H        11.8801213533        6.4754039335       31.6620634922
  C        11.4788123973        5.5293940228       31.8372399537
  H        11.9956876239        4.7210170240       31.3344685705
  C        10.0800992322        5.6516577207       31.0756623836
  C        11.5362373500        5.2154580174       33.4045841453
  C        10.2417828284        6.1251100517       29.6140337625
  H         9.6220719135        4.6942481161       31.0512273601
  H         9.3177746024        6.1962467892       31.6348409878
  H        10.9830099366        4.3143426081       33.6567744718
  H        12.5579918706        5.0097359150       33.6675356807
  H        11.0573451958        6.0374326967       33.8403327275
  C        10.1660975515        4.9462631385       28.7040893894
  H        11.1125394077        6.6686752856       29.4129212841
  H         9.4177825308        6.8094157513       29.4054513720
  C        10.6634507843        5.2062981791       27.3030293797
  H        10.6541957514        4.1125962182       29.1916871737
  H         9.1069392336        4.6430980484       28.6484206703
  C         9.7011837163        4.7553787258       26.1840314598
  H        11.6054652743        4.5615559904       27.2378932657
  H        10.7917605158        6.2624689451       27.0803730761
  C         8.4111088239        5.6004012670       26.0826092893
  H        10.1030558745        4.6511849445       25.1835762578
  H         9.3609503844        3.7425362618       26.3851663898
  C         7.2789074896        4.8714414099       25.3236391405
  H         8.1504275467        5.9000417531       27.0801166058
  H         8.5790254242        6.5185541049       25.5514239416
  C         6.9231393070        3.5509168786       25.9617699607
  C         7.7838776849        4.2357560617       24.0832410218
  C         6.0140255974        5.7833426164       25.0565646589
  C         7.3052309013        2.4674787933       25.1643238869
  C         6.2183680438        3.1987165288       27.0979432392
  C         7.8196839081        2.8546943781       23.9581896002
  C         8.2634575449        4.9039989952       22.9229948639
  H         6.2673830898        6.5797491149       24.3571671097
  H         5.7352401884        6.2864692844       25.9502081657
  C         4.7625019412        5.1264714110       24.4413197202
  S         7.0105722619        0.9614410107       25.9671418917
  C         6.1651827740        1.8245785165       27.2752835783
  H         5.8019374439        3.9970409022       27.7198948643
  C         8.2354316710        2.2579663126       22.7947935838
  H         8.0307680244        5.8973043549       22.9410938101
  C         8.5869086302        4.3342336214       21.7269922316
  H         4.8651145526        4.9587970958       23.4196168452
  H         4.6005465140        4.1461702897       24.9935498191
  C         3.5465502544        6.0123517013       24.6023307430
  C         5.6197078067        1.0889315755       28.4301446191
  C         8.6029982921        2.9910727675       21.6537466662
  H         8.2208444033        1.1604964842       22.7328223266
  C         8.9824089801        4.7813532759       20.4929387329
  H         2.6901623433        5.8171230498       23.8720266239
  H         3.8858351533        6.9574883145       24.3179622242
  C         3.0328910790        6.0675873545       26.0913778767
  C         5.6147913444       -0.2683404098       28.7122602975
  C         5.2904763246        1.9105875595       29.6023017163
  C         9.0856847589        2.3411125403       20.3939531595
  C         9.3027693595        3.7562842480       19.6997855752
  S         9.2848345494        6.3161079273       19.7246944836
  H         2.2838070737        6.8330500890       25.9530440453
  H         3.7401909804        6.4554943667       26.7710854243
  C         2.4902619902        4.7185503989       26.5238409157
  N         5.9800416240       -1.2126333204       27.7897812393
  C         5.4482016462       -0.7752239631       30.0212559473
  C         5.1185991054        1.4346138899       30.9225536852
  H         5.0873970454        2.9691187803       29.3772883836
  C         8.0687907919        1.4564703699       19.5965957948
  C        10.5268187324        1.6640485765       20.6333090055
  C         9.7990751406        4.1731089256       18.4562278412
  C         9.8517726864        5.5180204991       18.3505418518
  H         1.9411627080        4.3396766983       25.7340922126
  H         3.2380005926        4.0219903422       26.7990109888
  C         1.5920952093        4.8008955009       27.7583754590
  S         6.0155398546       -2.6150504385       28.5425466370
  N         5.7532867289       -2.1075059422       30.0469816370
  C         5.2046279248       -0.0106072804       31.1952501808
  H         4.7465197654        2.0899687575       31.6273238565
  H         7.4471017606        0.9088690997       20.2993757931
  H         8.6461397600        0.6733217001       19.1328237492
  C         7.0448192464        2.1814172824       18.6457113314
  H        10.8135288385        1.2602790633       19.6468672416
  H        10.4007115849        0.8192455978       21.4017572010
  C        11.6747900455        2.4497300129       21.1138323960
  H        10.1026831839        3.4289802340       17.7520214115
  C        10.1790409032        6.2827443493       17.1080967090
  H         1.6144871155        3.8580730435       28.3281817504
  H         0.5216249928        4.9520173767       27.5204155294
  C         2.1098424445        5.8524106830       28.8202162946
  C         5.0390930372       -0.7354863368       32.4492723693
  H         7.6105461970        2.3714585872       17.7194430699
  H         6.7356156535        3.0355970157       19.1219696091
  C         5.9042285801        1.2361763689       18.2318768007
  H        11.4858805159        2.7664747459       22.1728324642
  H        11.8397455555        3.3725754348       20.5785527397
  C        12.9405769139        1.6048749352       21.1045186096
  C        10.1727946055        7.7163135886       17.0267819472
  C        10.4347800511        5.5716837551       15.8525789643
  H         3.2005935523        5.9236607652       28.7116361472
  H         1.8371922151        6.8377410741       28.5496772346
  C         1.6460919036        5.6632738528       30.2706424430
  H         5.1622916083       -1.7783385659       32.3963708413
  C         4.7537482385       -0.2406166787       33.7117003033
  H         5.3967114776        0.8873197045       19.1776945723
  H         6.3869206637        0.3683642488       17.7937099341
  C         4.8277973871        1.8806371602       17.3209043190
  H        12.9911307124        1.2015974996       22.1358394050
  H        12.8243640070        0.7717448541       20.4122709677
  C        14.2479057548        2.2850959971       21.0954332585
  N         9.9436307276        8.6124188274       18.0622739944
  C        10.3780307086        8.3967089775       15.8050216528
  C        10.6631712955        6.2101303036       14.6749242814
  H        10.3013461252        4.5036725551       15.8339364621
  H         2.6226914294        5.6061842044       30.8642773495
  H         1.0328829213        6.5117908690       30.6137864830
  H         1.0893141074        4.7693811797       30.3301430030
  S         4.5485621145        1.4339686602       34.1199195737
  C         4.6557619255       -1.2115624179       34.8438896343
  H         4.8981126413        2.9451272253       17.3513177110
  H         5.0713121222        1.5334205730       16.2943389155
  C         3.4529958981        1.3693710421       17.6142615628
  H        14.4541791397        2.9181529264       20.2078681409
  H        14.9098017857        1.4233110977       20.9634153714
  C        14.6570539605        3.0744820029       22.3882232992
  S        10.1306680887       10.1249279968       17.5941718874
  N        10.3793658768        9.8463422479       16.0071269705
  C        10.6618358089        7.7117829857       14.6048448487
  H        10.7577432759        5.6305033689       13.8229303698
  C         4.2339716713        0.8379184506       35.7591621751
  N         4.2653278544       -0.5217404881       35.9358052040
  O         4.8128975691       -2.4285651717       34.6842924462
  H         2.7040236097        2.1023816813       17.2030772697
  H         3.3376092266        1.1736387464       18.7355542506
  C         3.1807319127        0.0635014765       16.7963027582
  H        15.1954889782        3.9708963097       21.9667928472
  H        13.7856979606        3.4508006567       22.9424612290
  C        15.3599436932        2.2094351708       23.4353094104
  C        10.8943518487        8.5546715341       13.4550076069
  S         3.6965501929        1.7294858971       37.1463162865
  C         4.1127842886       -1.2218327610       37.2321166944
  H         3.0937790018        0.1616717836       15.7447682272
  H         4.0699332149       -0.5194995445       16.9902025537
  C         1.9742360517       -0.7033989022       17.2783805958
  H        15.3676836015        1.1140357577       23.1513683492
  H        14.7417175797        2.2805222776       24.3142842677
  C        16.8185860168        2.5185090515       23.7187728411
  H        10.6715162680        9.5897058942       13.6727927642
  C        11.4540493967        8.2780878496       12.1962405482
  H         3.1193875650       -0.9291208298       37.7548620298
  H         3.9478084594       -2.3564478239       37.2430573164
  C         5.3875213897       -0.9247447775       38.0306771030
  H         1.2189632718       -0.6460605025       16.5016622213
  H         1.5320107809       -0.3224268111       18.2469761919
  C         2.2448206085       -2.1941251464       17.2958579099
  H        16.9983126313        3.5520570107       23.9906397475
  H        17.1904383254        1.8241058753       24.4762705669
  C        17.7042618606        2.1514472812       22.5184714312
  S        12.0892771297        6.8074476529       11.5942894552
  C        11.4911270232        9.4304976098       11.2115596103
  H         5.6195168736        0.1306645564       37.9995859042
  H         5.4095302232       -1.2199796988       39.0439875735
  H         6.1468887056       -1.5013756887       37.5074986114
  H         3.3787537427       -2.4591576314       17.3286697738
  H         1.9326915875       -2.5591745007       16.3317436460
  H         1.6264757323       -2.7431614529       18.0270396197
  H        18.6487125937        1.6444208525       22.7847325691
  H        17.9988356835        3.0329794332       21.9083481680
  H        17.3398691454        1.4223823593       21.7452079049
  C        12.2996797082        7.6478773848        9.9890915822
  N        12.0994224602        8.9668036317       10.0662162023
  O        11.1341593979       10.5836786387       11.4362993138
  S        13.1261871077        6.9703782438        8.5406824681
  C        12.2254093555        9.9092673953        8.9956586429
  H        12.4294127850       10.9133983207        9.3502446163
  H        13.0321530107        9.5867374728        8.3056249991
  C        10.8675622090        9.9182521941        8.2542805000
  H        10.0031562203       10.2021141811        8.8812429714
  H        10.8524974572       10.5064230088        7.3303277897
  H        10.5993861323        8.9123244281        7.9360527594
  H        -2.3100699443       15.4269930330       16.6195670725
  C        -2.7103151634       14.3434503169       16.5642007146
  H        -3.7814859155       14.4088728847       16.8039822921
  C        -2.0501178617       13.4241091347       17.5089045101
  C        -2.6026276512       13.9309728268       15.1106188961
  C        -2.3131796263       13.8311041588       18.9407520278
  H        -2.5135826913       12.4003226400       17.4584339395
  H        -0.9935192923       13.3914909996       17.2862970722
  H        -1.5485765248       13.8344847582       14.7413433454
  H        -3.0066146676       12.9278096176       15.0559545988
  H        -3.1066458348       14.5158951114       14.3562993216
  C        -1.6189390615       13.0195764546       20.0324075952
  H        -3.4424997611       13.8818918418       19.1437980467
  H        -1.9895341652       14.8870640480       19.0373949090
  C        -2.2842220101       13.1953235454       21.4260434002
  H        -1.6671703254       11.9715211018       19.7971662830
  H        -0.5339640059       13.2141781952       20.0106043864
  C        -1.4559348428       12.8358536402       22.6827809065
  H        -3.1365584243       12.5776632897       21.4477421101
  H        -2.6953863406       14.1751164760       21.6381729496
  C        -0.2807751286       13.7806495289       22.8293965572
  H        -1.8870601530       12.6679167465       23.6791847333
  H        -1.1342579837       11.8068301127       22.5147884982
  C         0.9384724480       13.0989684145       23.5321540728
  H         0.1936146315       14.0661037522       21.8638462528
  H        -0.4425722813       14.6610386632       23.3935448702
  C         1.2825728342       11.8033142445       22.7898050057
  C         0.5108634074       12.3161289153       24.7584369491
  C         2.1952551386       13.9829373963       23.5579096050
  C         1.1098104038       10.6656692712       23.5429578324
  C         1.8298059589       11.4418506482       21.5594523418
  C         0.5520916704       10.9572296616       24.7517053387
  C        -0.0160390527       12.9693077715       25.8290515221
  H         2.3891605384       14.4166997444       22.6022223603
  H         1.9404258414       14.8102416371       24.1777095889
  C         3.4506121155       13.3178560055       23.8971437319
  S         1.6121540009        9.1390967654       22.8193665707
  C         2.0361058662       10.0544864977       21.3978961585
  H         2.1723379556       12.3228082762       20.9573985435
  C         0.0568266563       10.2967480454       25.8978593557
  H        -0.0387668986       14.0508054854       25.7972536834
  C        -0.3890690039       12.3486412361       26.9608458174
  H         3.6463670197       12.4177379700       23.4147428857
  H         3.3826377532       13.0700659870       24.9600853691
  C         4.7639427243       14.1572102583       23.9036836546
  C         2.6470362610        9.4323127620       20.1439017376
  C        -0.3492757305       10.9892087119       27.0377180383
  H         0.1414949717        9.2246303090       25.9800564711
  C        -0.8117560503       12.7426683849       28.1894673117
  H         5.4435620589       13.5229171298       24.4576709427
  H         4.7664743776       15.1119871207       24.4389699247
  C         5.3678335921       14.3445663690       22.4813002843
  C         2.6412447995        8.0452234862       19.8053401932
  C         3.1868290474       10.3582178940       19.0943863661
  C        -0.6192130484       10.1934749836       28.3150021691
  C        -0.9807909229       11.5816704872       28.9974853249
  S        -1.0940628563       14.2404602690       28.9693996157
  H         6.4118022792       14.8049349032       22.5542494686
  H         4.8097781259       15.0555216923       21.9442787680
  C         5.4178023595       12.9854094070       21.7174758205
  N         2.2211857934        6.9495632779       20.6063668209
  C         2.9439615032        7.5887897383       18.5715886376
  C         3.5040902194        9.8808942450       17.8268026241
  H         3.1526508185       11.4258722594       19.2094921300
  C         0.6439351559        9.4961661685       28.9245923600
  C        -1.8273707170        9.2726535112       28.2501049367
  C        -1.3077780198       11.9088156742       30.3056629201
  C        -1.4203909599       13.2498985724       30.4035464864
  H         5.4589130691       12.0632571524       22.3251839243
  H         4.5406387697       12.8887458869       21.0761833539
  C         6.6695578732       12.9139671691       20.7310322556
  S         2.2836375343        5.4930558839       19.7440186657
  N         2.8261056078        6.1748404621       18.4092880478
  C         3.2790024730        8.4487529510       17.5222843770
  H         3.8225012607       10.6112561548       17.0877268670
  H         1.0624930185        8.8033423173       28.1831253729
  H         0.2444192308        8.7352954583       29.5873132843
  C         1.6556333715       10.4726290115       29.5069845758
  H        -1.7046861082        8.4350507381       27.5558078787
  H        -1.8704871378        8.7237559422       29.2253605030
  C        -3.0754874066       10.0984280510       27.7993589763
  H        -1.2912908536       11.1295610984       31.0385851484
  C        -1.6981353806       13.9413743875       31.7322097670
  H         6.6698511919       11.9310733212       20.1901752775
  H         7.5116976394       13.0397632260       21.3460423910
  C         6.5832075498       13.9380500072       19.5883601385
  C         3.5735041175        7.8392267686       16.2432282957
  H         1.8914222468       11.2636178498       28.7713920432
  H         1.1707301490       10.9736422610       30.3166770583
  C         3.0113502654        9.8107344031       29.8765460531
  H        -2.9877308019       10.6269507972       26.8256434980
  H        -3.3290904746       10.9086191481       28.5266790475
  C        -4.3564207133        9.2051506986       27.9315263284
  C        -1.7018981191       15.3294221410       31.9023717060
  C        -2.1571511605       13.1336982328       32.8825802573
  H         6.0046094491       14.8218538508       19.9198863446
  H         7.5499523928       14.1930450609       19.4213717982
  C         6.1375449332       13.3677522527       18.2722806245
  H         3.5041462121        6.7583042763       16.2630347113
  C         3.9205305608        8.2573862202       15.0073158833
  H         3.6925911923        9.8745990355       29.0104950997
  H         2.9789467253        8.7128406437       30.0321346333
  C         3.7913771553       10.3776010526       31.0876649110
  H        -4.2354390387        8.3477168467       27.2265850835
  H        -4.4753587412        8.7495959001       28.9133247303
  C        -5.6875850958        9.8442046771       27.7001307893
  N        -1.4931929117       16.3010087395       30.8914451973
  C        -2.0208391365       15.9017385820       33.0894617570
  C        -2.2919841471       13.7293017430       34.1349676721
  H        -2.1789066148       12.0201752588       32.7701264970
  H         6.8176566073       12.8926737525       17.5839240184
  H         5.3241876035       12.6682752317       18.3881390709
  H         5.6565348768       14.1325732901       17.6921730638
  S         4.0908004730        9.8907135219       14.5097121638
  C         4.0792290755        7.2314406258       13.9563517132
  H         4.0121072912       11.3836848117       30.7623851277
  H         3.2425179478       10.5782954343       31.9990549611
  C         5.1348347467        9.5402729472       31.2300502596
  H        -5.6135271663       10.9116743209       27.9540519993
  H        -6.4044159130        9.2707137830       28.3345079259
  C        -6.1875715627        9.7607759292       26.2872714706
  S        -1.6459039379       17.7864820029       31.6107549106
  N        -2.2206117195       17.2955853965       33.0122854914
  C        -2.3030247889       15.2397188082       34.2598851453
  H        -2.7087658360       13.1262627301       34.9708848814
  C         4.3311059641        9.1648541287       12.8828330704
  N         4.2856083014        7.8534980774       12.7648420236
  O         4.0974334996        6.0395383030       14.0810237852
  H         5.7983453753       10.0876173220       31.8404407431
  H         5.5121002055        9.5864266913       30.1811834037
  C         4.9232819051        8.1717378151       31.8426093902
  H        -5.2614739435        9.8447464539       25.7185218611
  H        -6.5941779242        8.8227330001       26.1200738732
  C        -7.2909966661       10.7916395730       25.9365041100
  C        -2.5923978221       16.0112074522       35.4290452295
  S         4.8710207087       10.1255866427       11.5236874385
  C         4.3771402624        7.1286749191       11.4662897316
  H         5.1037013519        8.1267393369       32.8989013661
  H         3.8110201550        8.0244556371       31.8653863228
  C         5.8732172482        7.2101612461       31.0923505804
  H        -7.4227478496       10.9229696763       24.8512891672
  H        -7.0043702124       11.7094600140       26.2734477829
  C        -8.6743149946       10.4821657023       26.5981036535
  H        -2.3113127999       17.0368449039       35.3020172901
  C        -3.1051069653       15.7346106480       36.6917160747
  H         5.1494787572        7.4783933883       10.7595682005
  H         4.7063638601        6.1599058738       11.8757487466
  C         3.0027922940        7.0205583150       10.8026314837
  H         6.9175670652        7.6068836711       31.1386555358
  H         5.6642096461        7.0132563123       30.0173052403
  C         6.0418564691        5.7869102957       31.7277407892
  H        -8.3901077514       10.1315253297       27.5351031717
  H        -9.2829447912       11.3961348708       26.7226752845
  C        -9.4170199735        9.4505064325       25.7881604532
  S        -3.6109870852       14.1854314245       37.3708097241
  C        -3.2036728246       16.8496314979       37.6713078582
  H         2.1347721421        6.9590684084       11.4827414423
  H         2.9711136186        7.8442974518       10.1185061174
  H         3.0681027994        6.1342413795       10.1714600549
  H         5.1014345404        5.3030050365       31.6017965807
  H         6.3347950703        5.8531513511       32.7632852057
  H         6.8139266919        5.3227885132       31.1906357689
  H       -10.4840515959        9.3116439868       26.2010520582
  H        -8.9277788986        8.4845192139       25.7286285486
  H        -9.5472161997        9.7618003390       24.7842272381
  C        -3.8715450922       15.0170421859       38.8752083359
  N        -3.7618170999       16.3690199910       38.7822842912
  O        -2.8830449919       17.9913261764       37.3527284362
  S        -4.5080587277       14.2996003116       40.3592604792
  C        -3.8797635918       17.2599410050       39.9847841618
  H        -4.2519204255       18.2148001326       39.6119889595
  H        -4.7509929574       16.9236203988       40.5175421620
  C        -2.6284639375       17.2446213936       40.8587344141
  H        -2.2720441700       18.2681716659       40.8483225989
  H        -2.7623355757       16.9142962142       41.8809474390
  H        -1.8610955106       16.6828187123       40.3586060310
