352
 i =     2700, time =     2700.000, E =        41.5225472200
  H        11.8986524311        6.7496992954       32.2320915490
  C        11.8114833009        5.7362495165       32.2031930694
  H        12.6841754123        5.1481044085       31.9300817894
  C        10.7147387208        5.4630751392       31.2115725722
  C        11.4895772563        5.2161446531       33.6635339625
  C        10.9930515400        5.9689885371       29.8078512271
  H        10.4746495628        4.4062481510       31.2936599907
  H         9.8167360600        5.7647895951       31.8074614132
  H        11.9972061565        4.3041163610       33.8683106468
  H        11.8914257743        5.9156050657       34.3202703229
  H        10.5118374358        4.7890227657       33.8545416757
  C        10.3862717244        5.0381382458       28.8309495003
  H        12.1042503452        6.0575748341       29.6551725974
  H        10.6059668122        6.9108850733       29.5015246043
  C        10.6676206166        5.5766279413       27.4508756529
  H        10.9526947154        4.0568699396       28.8016824179
  H         9.3446787575        4.8122940176       29.0384572736
  C         9.7290738496        5.0084441029       26.4063343991
  H        11.7265398159        5.4002775955       27.3217625775
  H        10.5991379362        6.6386174110       27.5554397864
  C         8.4398703699        5.8127116773       26.2574443510
  H        10.2170569481        4.8165022646       25.4764769606
  H         9.4453324436        3.9245209694       26.6698959306
  C         7.3983262887        5.0002788942       25.3931286622
  H         8.0606511916        5.9920135027       27.2495958082
  H         8.6727802012        6.7309295278       25.9413765370
  C         7.1038892546        3.6664053638       26.0191450989
  C         7.8891637904        4.2867501621       24.1616695279
  C         6.2002973923        5.9136280071       25.0964534490
  C         7.3093905180        2.5326121467       25.1912190242
  C         6.5652045245        3.2333276896       27.2634887242
  C         7.8692160424        2.9440870305       24.0288151353
  C         8.2592279772        4.9509396765       23.0361016296
  H         6.3753256800        6.5348540196       24.2226293163
  H         5.8259278163        6.5889643079       25.8797213343
  C         4.9746852980        5.0189985787       24.7306769331
  S         7.0305688183        0.9877809433       25.9681371360
  C         6.5254216439        1.7988580204       27.3825586812
  H         6.4067270154        3.9814814512       28.0456678967
  C         8.2625220317        2.3886111386       22.9136363002
  H         7.9032835438        5.8969045307       22.9839592551
  C         8.6958392377        4.4012691980       21.9202865222
  H         5.2612315081        4.4501564301       23.9058021616
  H         4.5477104112        4.4580412796       25.5540615768
  C         3.6514357457        5.7834326819       24.3435972539
  C         6.0239161115        1.0923508104       28.6252362944
  C         8.7071063174        3.0528640311       21.7748732540
  H         8.1924439700        1.3448680960       22.7448484726
  C         9.0139765653        4.8116882070       20.6651216020
  H         3.0743695440        5.1455441954       23.6220291720
  H         4.0538744981        6.5605184771       23.5857038841
  C         2.7497042981        6.2794529844       25.5207111036
  C         5.9644942396       -0.3128580391       28.8412165787
  C         5.4312160161        1.8254877812       29.7098865960
  C         9.0887605090        2.3754973886       20.4995342235
  C         9.2563749478        3.7556783697       19.8052282022
  S         8.9749536372        6.2795501081       19.7659289679
  H         2.0003060170        7.0310489731       25.1028860310
  H         3.4284167485        6.7261237307       26.2127160163
  C         1.9713676804        5.1769623555       26.1222467953
  N         6.4037083394       -1.2575614332       27.9243819289
  C         5.7355515261       -0.8906308625       30.0925216060
  C         5.1019709319        1.2977043053       30.9638049808
  H         5.3449766778        2.9203473734       29.5703609407
  C         7.9581373624        1.5894424901       19.7558664955
  C        10.3527849460        1.6166904657       20.6770413430
  C         9.6243970351        4.1539177606       18.5018631572
  C         9.5330964328        5.4912396138       18.3102536359
  H         0.9556221614        5.1060000825       25.6728207791
  H         2.5775954895        4.2142754817       26.0786777859
  C         1.5826449326        5.5136728791       27.5752176837
  S         6.4172147352       -2.7666063218       28.5507236224
  N         5.9113056996       -2.2902312314       30.0625367027
  C         5.3330491898       -0.1757683222       31.2297473483
  H         4.5947807967        1.9422094356       31.6809824974
  H         7.4465541788        1.1237566825       20.5782030575
  H         8.3621647379        0.9260448656       19.0571838632
  C         6.9492677850        2.3995856516       18.9092389728
  H        10.6487618785        1.1767508731       19.7353846544
  H        10.0662802317        0.7480418479       21.2086808425
  C        11.5185658387        2.4078029546       21.3215596922
  H         9.8609285156        3.2735763610       17.9076475553
  C         9.9247457794        6.2108007184       17.0463762694
  H         0.7170501133        4.9070313684       27.7542746576
  H         1.0579463290        6.4555249145       27.6095550223
  C         2.7061180968        5.4422890197       28.6767236953
  C         5.1843150338       -0.8157791121       32.5004720121
  H         7.3738992549        2.9370289502       18.0200548505
  H         6.6220028445        3.1371188626       19.6270261209
  C         5.7681434729        1.6149663698       18.5138550075
  H        11.2139828669        2.7272591382       22.2833743702
  H        11.5602721040        3.3000636351       20.6826099884
  C        12.7868655427        1.5577923349       21.2829140496
  C        10.0369722382        7.5874856271       16.8793115121
  C        10.0918781042        5.3246919968       15.8762886070
  H         3.3579650915        4.4990089039       28.7315684701
  H         3.3304067095        6.3599311510       28.5698947068
  C         2.1151027126        5.4145348930       30.0853981927
  H         5.2629117017       -1.8947208884       32.3319605831
  C         4.7080173257       -0.2897504589       33.6790153178
  H         5.6682016899        0.6629648417       19.0445639328
  H         6.1913259547        1.2062787875       17.5325287095
  C         4.5290167052        2.3823784702       18.2560669796
  H        12.6034995018        0.6866637494       21.9245873267
  H        12.9462324679        1.1195896370       20.3212604877
  C        14.0541821474        2.4004336076       21.5876088638
  N         9.8087685731        8.5267656473       17.9121558776
  C        10.3101606579        8.1875362613       15.6799093169
  C        10.3788000273        5.8872725238       14.6199560956
  H        10.3360898651        4.2999147326       15.9806737218
  H         2.7920315821        5.1435355958       30.7918389807
  H         1.8899031625        6.4964419765       30.3810394286
  H         1.3310508574        4.7849798174       30.2822671861
  S         4.4367567825        1.3452273274       34.2143242165
  C         4.6814820080       -1.2947909572       34.7714731408
  H         4.4662676123        3.2751121468       18.9310665529
  H         4.4704384883        2.8406710041       17.2315800856
  C         3.2103670647        1.5781809903       18.4909743947
  H        13.6431880856        3.1589071948       22.2659467586
  H        14.4177836859        2.8957877667       20.7476390220
  C        15.1036608623        1.6164481778       22.3065948361
  S         9.8513321201        9.9964561625       17.2812084366
  N        10.3230912653        9.6140643869       15.8181871518
  C        10.5315122872        7.4336182611       14.5082264703
  H        10.5727944373        5.1095125245       13.9133681281
  C         4.2197811870        0.6457868961       35.8130443618
  N         4.3092998313       -0.7078504367       35.9234948177
  O         4.7566478532       -2.4747749820       34.5675758066
  H         2.5314314859        2.4437298350       18.5038185786
  H         3.2814003455        1.0736199318       19.4343799740
  C         3.0467057995        0.6178759803       17.2117582910
  H        14.6283336774        0.7763832388       22.7866646876
  H        15.6995295243        1.1342551172       21.5689622976
  C        15.9439451470        2.3648351319       23.3044511797
  C        10.9120275407        8.2419009884       13.3120756718
  S         4.0269279097        1.4359739070       37.3739749304
  C         4.2453340333       -1.4543533848       37.1527265896
  H         2.5188063473        1.1998123905       16.3792174036
  H         3.9634423146        0.1161801312       17.0693579042
  C         2.3855892899       -0.6845155117       17.6124426086
  H        15.5857330833        1.8645632742       24.2538748683
  H        15.9304414697        3.4899220840       23.5434457745
  C        17.4570205433        1.9658481446       23.0951823384
  H        11.1816588350        9.2888633246       13.4958958661
  C        11.3458319418        7.8170435751       12.0895970063
  H         3.6254599611       -1.2364494325       38.0631136349
  H         3.7330591857       -2.3893167023       37.0830160911
  C         5.7037656651       -1.7901716068       37.7850135920
  H         1.3890190911       -0.6245209289       18.1974257430
  H         3.1295623691       -0.9607044076       18.2926287147
  C         2.2412712323       -1.6987043608       16.5573173182
  H        17.8444518364        2.1087818160       24.1019755371
  H        17.6356882211        1.0338806445       22.9264681340
  C        17.9726393920        2.8633293752       21.9835396832
  S        11.6257181580        6.1402652799       11.6375656287
  C        11.7408210251        8.7616812816       11.0758248975
  H         6.6475380181       -1.3486873725       37.2901752262
  H         5.7554001523       -1.3066878758       38.7840589221
  H         5.9429627589       -2.8206411720       38.0223288596
  H         2.9153522938       -2.5570263813       16.7316961971
  H         2.5825828675       -1.3928063299       15.5373440462
  H         1.1521156606       -2.1615449570       16.3753108170
  H        17.6326886643        2.4531480824       21.0029011183
  H        19.0580622039        2.9748407916       21.8614595338
  H        17.5445085227        3.7842925327       22.0562603273
  C        12.0556730999        6.7960057781       10.0414475743
  N        12.1808187790        8.1031192102       10.0094521922
  O        11.4530275682        9.9854196920       11.1683742379
  S        12.8671496606        5.8518680020        8.7792855515
  C        12.6055569307        8.9118961028        8.8185264714
  H        12.6267848429        9.9445858115        9.2591309717
  H        13.6402084504        8.6777769847        8.5595481112
  C        11.5809395748        8.8791062267        7.6701535293
  H        12.0246534480        8.3362191727        6.8400008894
  H        10.5238358025        8.7237036767        7.8102879695
  H        11.5973147165        9.8596189047        7.2773791634
  H        -3.7171251204       14.8934487983       16.5905947879
  C        -3.5709530792       13.9132166273       16.5989690959
  H        -4.5120197999       13.3719150363       16.7566568563
  C        -2.4353385853       13.5555508127       17.5223792089
  C        -3.2680402785       13.4333464353       15.0961754850
  C        -2.9282891689       13.8409031282       18.9008574491
  H        -2.2644701448       12.4823668241       17.5393997893
  H        -1.6031569451       14.1653441852       17.3790157783
  H        -2.2570266834       13.3148378397       14.6931521881
  H        -4.0395948391       12.8085346499       14.7197001124
  H        -3.6451360678       14.2063112950       14.3846890286
  C        -2.1141768530       13.1824338651       19.9455020768
  H        -3.9668096686       13.3320830814       18.9424152925
  H        -2.9861256632       14.9471057001       19.0102727106
  C        -2.2239647275       13.8654216506       21.3544769578
  H        -2.5476026512       12.2113300016       20.1915779399
  H        -1.0742150314       12.9862653465       19.5905092867
  C        -1.2924446117       13.1080114306       22.2746272169
  H        -3.2635828925       13.5865269971       21.7508713283
  H        -2.0569472429       14.9081119550       21.2710679511
  C        -0.0622856858       13.9997832328       22.5486425099
  H        -1.7843670569       12.8462778326       23.1657339419
  H        -1.1158391040       12.2220326736       21.7688783356
  C         1.0547409136       13.2070018437       23.2960441241
  H         0.2266323129       14.4654880641       21.6448515323
  H        -0.4416024990       14.8626345543       23.1242143974
  C         1.3639604216       11.9296740900       22.5833833435
  C         0.7079442047       12.5102532342       24.5084674874
  C         2.3280689636       14.0709576124       23.5512866315
  C         1.3322403307       10.7791826558       23.3918490015
  C         1.9379971190       11.5755924980       21.3285245184
  C         0.8736903385       11.1823029677       24.5849865985
  C         0.3393787835       13.1091944772       25.7267591566
  H         2.6088999755       14.2565565651       22.4693682448
  H         2.0031576950       14.8645700883       24.1929557820
  C         3.5359926930       13.3217511050       24.1798241157
  S         1.9070192718        9.4016967470       22.6570137630
  C         2.1352084933       10.2473807714       21.2179905709
  H         1.9638358285       12.3584125331       20.6483741427
  C         0.5532380598       10.5458993955       25.7891168210
  H         0.0728115821       14.0816582907       25.5773958317
  C        -0.0022458957       12.5247070264       26.8805803377
  H         3.7609099756       12.5671449840       23.4109171272
  H         3.3582631354       12.8022747034       25.0834032651
  C         4.8420001643       14.0730906732       24.2923851520
  C         2.4699629615        9.5729652980       19.9166865350
  C         0.1514550134       11.2005918416       26.9741626456
  H         0.6394750342        9.4951863386       25.7637722489
  C        -0.4340786433       12.8688525100       28.1427645763
  H         5.5197238886       13.7808835056       25.1168495694
  H         4.6818186264       15.0281109566       24.7363976441
  C         5.5037735284       14.2248397130       22.9275705268
  C         2.5177404198        8.1871265056       19.7247810243
  C         2.7622720676       10.4378801827       18.7266155690
  C        -0.2043990363       10.4230028892       28.1565243904
  C        -0.5251093948       11.7276517618       28.8851411337
  S        -0.8320786502       14.2798991579       28.9626139096
  H         6.0929778368       15.1814584370       22.9712251565
  H         4.7296903530       14.4796368449       22.2682573244
  C         6.4498988573       13.0812268671       22.5083141324
  N         2.1499403760        7.1708872978       20.6822473401
  C         2.8508593627        7.6295930752       18.4916699407
  C         3.1964856164        9.8999126034       17.4880801761
  H         2.5634264476       11.4628245070       18.6860557179
  C         0.9337149513        9.6896624562       28.8583447135
  C        -1.4903119375        9.4952006516       28.0547270876
  C        -1.0484417912       11.9589229823       30.1652571406
  C        -1.2548862362       13.3549878558       30.3562631175
  H         7.1000591232       12.7451771880       23.3650283738
  H         5.9520743020       12.0211723306       22.3320245174
  C         7.2933571721       13.4936503239       21.3163912788
  S         2.1363047124        5.6464523213       19.9538371812
  N         2.6531889331        6.2015216955       18.4844538502
  C         3.0783985044        8.4369753343       17.2690119109
  H         3.3535848128       10.7603563357       16.8184626775
  H         1.5220492823        9.1074730677       28.0734654408
  H         0.4824439374        8.8634815756       29.4867850953
  C         1.9270243584       10.5309895952       29.6099027608
  H        -1.2689160125        8.5820101394       27.4872006985
  H        -1.7471541587        9.1232079456       29.0532047714
  C        -2.6977571936       10.1952408553       27.4845559931
  H        -1.2486946475       11.1689422017       30.9192525607
  C        -1.5961392740       13.9667355015       31.7230744485
  H         8.2840413529       12.9281363851       21.2760503447
  H         7.4077653290       14.5449549951       21.1558086916
  C         6.6404730687       13.1372492227       19.9721157767
  C         3.4269647862        7.7840232633       16.1062856483
  H         2.3642552130       11.2094602894       28.8199410527
  H         1.2825744522       11.1585365911       30.2450083505
  C         2.9226783973        9.6683309012       30.3160418338
  H        -2.5449345944       10.6928034813       26.5398626878
  H        -2.9400153873       11.0377153575       28.2623049258
  C        -4.0590036366        9.4490163161       27.3950358485
  C        -1.8044345538       15.4104698650       31.9298798488
  C        -1.7617767824       13.1518477168       33.0015819341
  H         6.2222404000       12.1554668940       19.9526994946
  H         5.9752141355       13.9151782109       19.6619335354
  C         7.5523546857       13.2028156750       18.7915270216
  H         3.5559964221        6.7921382064       16.1383230819
  C         3.6154752604        8.1564319884       14.7799989920
  H         3.0570724188        8.6763521177       29.8447879040
  H         2.5576551551        9.5075133464       31.3689703653
  C         4.2867071757       10.3536085839       30.3930679997
  H        -3.9184583356        8.8417895792       26.4740792562
  H        -4.1544223034        8.6571939113       28.1747523624
  C        -5.2988538787       10.2888054231       27.3176220711
  N        -1.6823977686       16.4482206324       30.9682468940
  C        -1.9969399606       16.0021428663       33.1902375024
  C        -2.1689628320       13.7509523969       34.1947106622
  H        -1.7136266878       12.0294608434       32.9103670601
  H         6.9950524154       12.8922451905       17.9217691369
  H         7.9447873275       14.1531442380       18.4847194139
  H         8.3149793870       12.4223685766       18.8530133502
  S         3.7309348619        9.7473406840       14.2290205580
  C         3.8306982405        7.1229000217       13.7896049015
  H         4.3992265683       11.2101407168       29.8382578780
  H         4.5331666050       10.7109944672       31.3634460692
  C         5.4268263622        9.4398595929       30.0041109178
  H        -4.9593598286       11.3618544056       26.9810871676
  H        -5.6686822561       10.4074165211       28.3008678733
  C        -6.4858083152        9.7534979445       26.4442927702
  S        -1.7655706570       17.9079862480       31.7677455956
  N        -1.8831784392       17.3552608178       33.2314367846
  C        -2.1994428166       15.2693785139       34.3953399781
  H        -2.4800631012       13.0518383053       35.0853172263
  C         4.1007084807        9.0285294319       12.6312660936
  N         4.1195293541        7.6506364353       12.5895156052
  O         3.7264444928        5.9343880136       14.0926840741
  H         6.2505107483       10.1772541746       29.8899134796
  H         5.0872581394        8.8664532401       29.1608690179
  C         5.8724674244        8.4677936889       31.0469133923
  H        -6.2576009818        9.6281635594       25.4603086019
  H        -6.5863732306        8.8029329044       26.9556123113
  C        -7.7563032821       10.5409948830       26.4623222315
  C        -2.5032278808       15.9638164834       35.5604243505
  S         4.5522150352        9.8251797066       11.0737364972
  C         4.1195837470        6.9301653122       11.2855391585
  H         6.4367659752        8.9743054388       31.9227610298
  H         5.0057802748        8.0915287990       31.4763870690
  C         6.7380853264        7.4197762342       30.3197108167
  H        -7.4947099396       11.5255105858       26.0260699735
  H        -7.9427516796       10.7580862429       27.4699819290
  C        -8.8248885197        9.7104053800       25.7442414499
  H        -2.1169232762       17.0477321034       35.7139042558
  C        -3.1688827068       15.5807858085       36.6872657496
  H         4.8549570905        7.4086911432       10.6126024570
  H         4.5006323358        5.8936857321       11.3455035188
  C         2.8128819641        6.8172372474       10.5608267175
  H         7.6943829587        7.9288779005       30.1922169558
  H         6.3610893612        7.2713875865       29.3131242937
  C         6.9038267251        6.0226581833       30.9932859072
  H        -8.9240373111       10.1429126226       24.7192173447
  H        -8.5569952348        8.7313205397       25.4335644436
  C       -10.2216358187        9.7209595503       26.4961531433
  S        -3.8139021149       13.9853996776       36.9347602700
  C        -3.2464394731       16.5134656439       37.8315487458
  H         2.2615890236        7.6918646401       10.4266002138
  H         2.9803658197        6.3866330010        9.6291637385
  H         2.1972585770        6.0683740945       10.9677228280
  H         7.2995410004        5.1740197300       30.4378863874
  H         5.9567570429        5.5507717537       31.3643511736
  H         7.5379845246        6.2273833269       31.8875198327
  H       -10.1595226839        9.0766673665       27.3874283245
  H       -10.8093731438        9.1552612681       25.8474099013
  H       -10.7740489153       10.7295647654       26.5848719389
  C        -4.0079394009       14.5542470676       38.6199358121
  N        -3.7627011431       15.8712434517       38.8282631674
  O        -2.9870326756       17.6922521827       37.7698566911
  S        -4.5747270178       13.6196553475       39.8961459260
  C        -3.9246614676       16.6016008242       40.1064434747
  H        -4.1134174089       17.6340509126       39.9242430315
  H        -4.8455097722       16.2927630345       40.6675928964
  C        -2.7948081805       16.3728359862       40.9728675572
  H        -2.4418286663       15.4708149884       40.7515350285
  H        -2.0869237271       17.0983613129       40.7271028121
  H        -3.0818217122       16.3856731225       42.0053093975
