352
 i =    19500, time =    19500.000, E =        25.4244263102
  H        11.5735132149        7.7582398107       32.2537019878
  C        11.1857508632        6.7406231396       32.0214077705
  H        12.0725149339        6.3945523094       31.4762971282
  C         9.8634737714        6.9642054811       31.1964013013
  C        11.0863330409        5.9324235490       33.2973100202
  C        10.1099019882        7.1835202462       29.7066735996
  H         9.1803967398        6.1476365766       31.3548615502
  H         9.3367752055        7.8201060949       31.6646059506
  H        10.0891238238        5.9144020029       33.7135664290
  H        11.4503793197        4.9486739343       33.0699831782
  H        11.7978508819        6.3640251846       34.0812455778
  C        10.1776094043        5.9073661212       28.9249664243
  H        11.0909452146        7.5938188047       29.4321038849
  H         9.4265069614        7.8862377859       29.1321297099
  C        10.8432572503        6.0029150368       27.5639472323
  H        10.6811766291        5.1130170991       29.5549424807
  H         9.1667306601        5.7126607753       28.8063552065
  C         9.8425450816        5.4393562167       26.5427763414
  H        11.5718717813        5.1850396236       27.6143438961
  H        11.2651275617        6.9633535515       27.3141022614
  C         8.6443824510        6.3501221957       26.2604871482
  H        10.2975602417        5.2691953797       25.6061787914
  H         9.4852754377        4.4955293637       26.9668028893
  C         7.5195301802        5.6067433735       25.5441653156
  H         8.1305879986        6.7663206198       27.0803403086
  H         8.9226036202        7.1402985959       25.6027861491
  C         7.0847027725        4.2800178970       26.1911646568
  C         7.8660494971        4.9278473756       24.2540237300
  C         6.2032113371        6.4817083300       25.4916134175
  C         7.2031737217        3.1852695682       25.3390192255
  C         6.5854268724        3.8970442801       27.4356100024
  C         7.7393345955        3.5611069801       24.1556275683
  C         8.2440875970        5.5899326752       23.0698153949
  H         6.4201325079        7.4252249352       24.9795943938
  H         5.9144810314        6.7752426392       26.5015608615
  C         4.8993716643        5.8373842695       24.8371999876
  S         6.7000948459        1.6304360116       26.0818274803
  C         6.3367191149        2.5245311255       27.5573359679
  H         6.4132306870        4.6577353418       28.2044672899
  C         8.1188084105        2.9680053365       22.9975733497
  H         8.1170448284        6.6467526203       22.9546749519
  C         8.5767429438        4.8869106781       21.9685325049
  H         5.1327944032        5.7008337518       23.8288554995
  H         4.7612648888        4.7977752218       25.2403648958
  C         3.5723857207        6.5649237357       25.0435817238
  C         5.8828470345        1.8615463003       28.8328790161
  C         8.5786449611        3.5569098554       21.8524389210
  H         8.0387654535        1.9473641454       22.8480971710
  C         9.0211317114        5.1698949284       20.6673656552
  H         2.8523369336        6.0769324162       24.3718360239
  H         3.5644356921        7.5410054662       24.6464472122
  C         3.0279695742        6.7065629917       26.4141666869
  C         5.8639734149        0.4641208661       29.0408438084
  C         5.3384777225        2.6504926157       29.8914743560
  C         9.0377939593        2.7649058920       20.7089743720
  C         9.2478099697        4.0271494374       19.9513309512
  S         9.2290324773        6.6570424976       19.8250334443
  H         2.1176797762        7.3508083489       26.3513590781
  H         3.7551998847        7.1883019641       27.0176038949
  C         2.7606948436        5.3201465350       27.1157872749
  N         6.0346246839       -0.5574837808       28.0811546412
  C         5.5815660547       -0.0800690280       30.3106177332
  C         4.9197667292        2.1242829305       31.1490342792
  H         5.2518123373        3.7102889716       29.7249489543
  C         7.8521237245        1.9879957289       20.1162368016
  C        10.4164994830        2.0270200799       20.7943130878
  C         9.6324240822        4.3487195144       18.6781202077
  C         9.5819290388        5.7073429644       18.4450881147
  H         2.2597003232        4.6644108538       26.4319458660
  H         3.5266957628        4.7569940595       27.5101402117
  C         1.7212374304        5.5510071606       28.2145754144
  S         5.9996833387       -2.0124390303       28.7996387038
  N         5.5259613379       -1.4991598934       30.2924554763
  C         5.0668807867        0.6725834454       31.3965339066
  H         4.3860318417        2.7252833871       31.8499845113
  H         7.5695291530        1.1379324874       20.7501728482
  H         8.1616559270        1.6917282069       19.1486456323
  C         6.5190307543        2.8282267315       19.8247972422
  H        10.5082018138        1.4872413918       19.9275452052
  H        10.2793202534        1.2493236314       21.5809857197
  C        11.6095718599        2.8796328359       21.1488654154
  H         9.9368991413        3.5501008133       18.0516963349
  C         9.9542095965        6.3068770684       17.1166092988
  H         1.0735726211        4.6338687121       28.2847764626
  H         1.1184530849        6.4290530014       28.0284232308
  C         2.4705558471        5.5057030349       29.5528459284
  C         4.8299923551       -0.0368557482       32.6126664439
  H         6.7855919783        3.6680993260       19.2322968298
  H         6.1694188057        3.3833953748       20.7347869576
  C         5.4213788973        1.9325275894       19.2475651585
  H        11.5158252521        3.3903572475       22.0881161656
  H        11.6635010593        3.6713178393       20.4514343702
  C        12.8791573271        2.0161637299       20.9929912130
  C        10.0927406134        7.7399224595       16.9158296405
  C        10.2211941843        5.4247549158       15.9687890848
  H         2.9548237025        4.5697287704       29.8220958468
  H         3.3061008047        6.2212389485       29.6653497143
  C         1.4361944784        5.9106921084       30.6595165489
  H         4.7074242196       -1.0935680654       32.4414802992
  C         4.4776578859        0.3380335196       33.8830833030
  H         5.3051335249        0.8673273845       19.6426340325
  H         5.6558915361        1.7364682845       18.2078745313
  C         4.0550134347        2.6149612705       19.1506754724
  H        12.9077822876        1.2942489030       21.7942673701
  H        12.8498253672        1.4217008465       20.0331534050
  C        14.0565488314        2.9128290944       20.9765582938
  N         9.7977127856        8.7931821498       17.8128346965
  C        10.4237601966        8.2325442079       15.6537554312
  C        10.6105744064        5.9267179247       14.7484659751
  H        10.1431095912        4.3756898061       16.0699187957
  H         0.8486725437        6.6843570928       30.3944941784
  H         0.8386941348        5.1096463802       31.0409249269
  H         2.0510003775        6.2827553574       31.4009782523
  S         4.2632939861        1.8664549353       34.4799535743
  C         4.4599997360       -0.7479360493       34.8867044082
  H         3.9834273870        3.2488822161       19.9820615501
  H         4.0798570114        3.2738575530       18.1936787777
  C         2.9406122064        1.5764273839       19.2324346709
  H        13.8822558249        3.7397350656       20.2803238892
  H        14.9342783183        2.4014602870       20.5594969439
  C        14.4871587381        3.3780258520       22.3517391230
  S        10.0316038815       10.2388615001       17.1132749460
  N        10.5282194804        9.6635828921       15.6582247319
  C        10.7822596625        7.4395434308       14.5661001251
  H        10.9075313052        5.2218441261       14.0046810709
  C         4.0523826904        1.0934401163       36.0354556655
  N         4.0469679459       -0.2531417191       36.0280057843
  O         4.6795714322       -1.9215859326       34.6096417653
  H         2.0331832087        2.0862775815       19.1517583977
  H         2.9277900782        1.1429156609       20.2203556097
  C         3.0525312495        0.4760223235       18.1167844525
  H        15.2757211251        4.1163320602       22.2019045821
  H        13.7514061049        3.9315256102       22.8573706796
  C        14.8808169734        2.2637619268       23.2924611057
  C        11.0562141179        8.1451645848       13.3867082589
  S         3.5108446173        1.9493557691       37.5748210032
  C         4.0116571081       -1.0747528386       37.2229179680
  H         3.0842848546        0.9947627607       17.1393906972
  H         3.9343907248       -0.1425978520       18.1906428668
  C         1.9197863059       -0.5371513702       18.2311735553
  H        14.7094018653        1.2942581459       22.9062832977
  H        14.1709387326        2.3822628314       24.1518713324
  C        16.2985053925        2.2849306509       23.8902777411
  H        10.8270131610        9.2290990833       13.4671635583
  C        11.5230249517        7.7097514228       12.2123525686
  H         3.1685905492       -0.7831712452       37.8698925185
  H         3.6490182220       -2.1176091646       37.0109097774
  C         5.3464766819       -1.1390075486       37.8956403524
  H         0.8722639026       -0.0505422596       18.2500416185
  H         1.9890233667       -1.1258809053       19.1996013505
  C         1.9652503511       -1.6517149602       17.1407185983
  H        16.4764415576        3.2961249425       24.3912466441
  H        16.3993824026        1.4990927410       24.6613455859
  C        17.3428321220        2.1050310895       22.7893676113
  S        11.8897862045        6.1503865891       11.7448455525
  C        11.7083197528        8.7870790415       11.1569143165
  H         5.6734640490       -2.1289972813       38.2795793394
  H         6.0294770132       -0.7830798278       37.1895682133
  H         5.2957892381       -0.3908584061       38.7531268333
  H         1.2005781423       -1.3512876388       16.4548327221
  H         1.6684031179       -2.5455785780       17.6882567229
  H         2.9658143659       -1.9378989803       16.7883064402
  H        18.3836489977        1.9205360553       23.1903172187
  H        17.4921642615        3.0718736563       22.3704968433
  H        17.1421096746        1.2571806876       22.0808677315
  C        12.2366993816        6.8342809757       10.1624058258
  N        12.0945181057        8.1682538668       10.0277438621
  O        11.5703672464       10.0032505596       11.2772553520
  S        12.7681583172        5.9035995788        8.8436222191
  C        12.2247158254        8.9164001664        8.7357785092
  H        12.2770855144        9.9821397051        8.9622171889
  H        13.1768458815        8.7557609960        8.2152869489
  C        11.0695658340        8.6024342781        7.7723082015
  H        10.1709081402        8.6643636710        8.3509895130
  H        10.9093360683        9.3138309644        7.0399117190
  H        10.9634925485        7.5564347695        7.5515615604
  H        -2.7958211742       15.4359946350       15.7559453876
  C        -2.9468294648       14.3552282477       16.0213401055
  H        -3.9188998483       14.3737855150       16.4396719934
  C        -1.9411831623       13.9155105797       17.1123178799
  C        -3.0442034928       13.4773204874       14.7761701748
  C        -2.5070478112       14.2198307452       18.5002958510
  H        -1.6770410488       12.9023148886       16.9071937859
  H        -1.0345863338       14.4905363515       16.8920198893
  H        -3.1314200072       14.2235108606       13.9305430109
  H        -2.0844198308       13.0569423424       14.6596842854
  H        -3.9820561994       12.9163804128       14.7060165202
  C        -1.6888468132       13.5939969658       19.6129825582
  H        -3.6390292732       13.9646576628       18.4722910057
  H        -2.3988985593       15.2549708730       18.7580103228
  C        -2.2020992855       13.8333836832       21.0427075246
  H        -1.7325316775       12.5671978600       19.5529673943
  H        -0.6331634873       13.9345313363       19.4629907785
  C        -1.2440977461       13.3999960292       22.1147054414
  H        -3.1570119720       13.4323950778       21.1565537426
  H        -2.3712898727       14.8904629109       21.3041425020
  C         0.0202718988       14.0959909757       22.3643259889
  H        -1.7730028477       13.2194707647       23.0294022361
  H        -0.9879338859       12.4110660487       21.7331537575
  C         1.1484694317       13.4237612580       23.1761754554
  H         0.5100505525       14.3500472407       21.4403484713
  H        -0.2969556014       15.0517047531       22.7900224794
  C         1.5506813156       12.1156119257       22.4061503071
  C         0.7518356122       12.6623309530       24.3528592775
  C         2.3338880863       14.4720035555       23.3704994028
  C         1.4767808878       11.0180733224       23.2619557666
  C         2.0251448633       11.7286877486       21.1114368204
  C         0.8415632730       11.3331188902       24.4501204912
  C         0.2701716133       13.2231772648       25.5392791361
  H         2.3662704824       15.0807002984       22.4297761176
  H         2.0404372166       15.1941648161       24.0793729987
  C         3.6708643189       13.8915098906       23.9085877407
  S         1.9850101124        9.5500518377       22.4880707676
  C         2.2316321339       10.3931393600       21.0483413734
  H         2.0560263318       12.3993019989       20.2542960228
  C         0.4092683269       10.6748680211       25.5366882102
  H         0.2242852442       14.2420081231       25.6271753696
  C        -0.2440576406       12.5725099788       26.5750690285
  H         3.9055047127       12.9305457949       23.4181535259
  H         3.5038683118       13.7182106127       24.9868060332
  C         4.9676483795       14.8371499296       23.8889565755
  C         2.5831126925        9.6428238154       19.7712743768
  C        -0.1986049215       11.2371241998       26.6633553402
  H         0.6630372326        9.6513257480       25.5867283451
  C        -0.5953454005       12.9650234881       27.8782250606
  H         5.5216872603       14.4635130238       24.7602929492
  H         4.7338523035       15.8402055214       24.3157901539
  C         5.6899053054       14.9000023722       22.5681399429
  C         2.5038064739        8.2513673857       19.5946928974
  C         3.0080442261       10.3878996684       18.5384117500
  C        -0.5785082556       10.4967725369       27.9106536922
  C        -0.7844419889       11.8326755536       28.6713397230
  S        -0.7406524928       14.4035828322       28.7494068716
  H         6.3040893311       15.7166982618       22.6101305949
  H         5.0144517949       15.0766819284       21.7485619848
  C         6.5609439888       13.6497702507       22.1845708365
  N         2.3785986250        7.3164245219       20.5788470263
  C         2.6544144786        7.6638976948       18.3307665590
  C         3.1671388046        9.8261050410       17.2770729188
  H         3.1304263164       11.4532803725       18.6157475545
  C         0.5481208241        9.5853160454       28.5705589278
  C        -1.8716700940        9.6414385010       27.7085014039
  C        -1.0275552463       12.1754360315       30.0117032047
  C        -1.1162672430       13.5269700122       30.1959824552
  H         7.4535090401       13.5808552233       22.7292479254
  H         6.0620356007       12.6726428450       22.4539519165
  C         6.7947448444       13.6796163100       20.6254097209
  S         2.0948830911        5.8468092724       19.9117721385
  N         2.4478475724        6.2607057426       18.3966122025
  C         3.0295287199        8.3678366381       17.1497387414
  H         3.3446290377       10.5924975562       16.4955542462
  H         0.7105861944        8.8269917461       27.7550694173
  H         0.1857495872        9.1187716107       29.4761787067
  C         1.8789664838       10.3666762495       28.8503259578
  H        -1.5680450392        8.9461177085       26.9443926081
  H        -1.8499791936        9.1327216079       28.6852636991
  C        -3.1603046422       10.4570290711       27.4586552447
  H        -1.1941979226       11.4476105168       30.7618283293
  C        -1.5248526477       14.2371999785       31.4590889891
  H         7.3552689953       12.7923978508       20.2840854920
  H         7.3581377854       14.5545009693       20.4523637457
  C         5.5601351983       13.3993774079       19.7452433579
  C         3.2231191919        7.6450892075       15.9688324505
  H         2.2001613642       10.9745065689       28.0050929573
  H         1.5855254288       11.1383651422       29.5468481938
  C         2.9277601358        9.4500954465       29.4241160162
  H        -3.0639620274       10.9806815867       26.4774392571
  H        -3.2519006516       11.3634482278       28.0808334091
  C        -4.4058177570        9.6394614326       27.4740476730
  C        -1.6356341748       15.6586512613       31.6409437763
  C        -1.8505003907       13.4818350230       32.7065930960
  H         5.4037402131       12.2641271499       19.6891047426
  H         4.6294251274       13.8654615143       20.1542528097
  C         5.9656972779       13.7635955661       18.3141490107
  H         2.8221056539        6.6527276690       15.9215237674
  C         3.5729799347        8.1163049477       14.7129393908
  H         3.3288481119        8.6748699485       28.7346110164
  H         2.5532762773        8.8223725657       30.2740830970
  C         4.1475571539       10.2632086139       30.1246770891
  H        -4.4270577685        9.0196236474       26.6215314062
  H        -4.3766255775        9.0691152642       28.3264707448
  C        -5.6799104007       10.5273117783       27.4607654205
  N        -1.4610731927       16.6161905120       30.6505345564
  C        -1.9902259789       16.2863341110       32.8428028094
  C        -2.1734174561       14.1431381678       33.9091560793
  H        -1.7797867359       12.3744203445       32.6804081424
  H         6.7669215465       13.1807678593       17.9870088118
  H         5.0860706175       13.7708025122       17.6426438896
  H         6.3267468065       14.7918938976       18.3441524828
  S         4.2112783863        9.6967515655       14.3257160610
  C         3.6351175764        7.0749623410       13.6082580317
  H         4.4338913498       11.0818817781       29.4972762451
  H         3.8987518194       10.6863061850       31.1100569530
  C         5.3924373692        9.3853510962       30.1655705610
  H        -5.7028923058       11.0167147310       26.5075601146
  H        -5.6938900908       11.2753868111       28.2854953685
  C        -6.8772790946        9.6671577548       27.7213859263
  S        -1.7016121593       18.1280401075       31.2062383380
  N        -1.9837428446       17.7045284804       32.7374095604
  C        -2.4152278483       15.6109496951       34.0279162639
  H        -2.2731809207       13.6084757241       34.7547917193
  C         4.3941419072        9.0073041477       12.6619240290
  N         4.0581749675        7.7118244449       12.4714332118
  O         3.3893720681        5.9063956945       13.7693754804
  H         6.0836385206       10.0448061132       30.6343936409
  H         5.8320541207        9.0172603930       29.1895578904
  C         5.1599840766        8.2486960942       31.1914470907
  H        -6.9148553816        8.8735877019       27.0095593241
  H        -6.8376379200        9.2006659163       28.7389016657
  C        -8.1219674043       10.5694120861       27.6450267078
  C        -2.6060204040       16.3623984119       35.2259564619
  S         4.9979230027        9.9762853968       11.3380114079
  C         4.0341670175        7.0764384054       11.1265577840
  H         4.9564331376        8.7997836926       32.1490310881
  H         4.3271117955        7.6949227792       30.8838733342
  C         6.3591218562        7.2997075990       31.3806526760
  H        -7.9683211900       11.5817059841       27.3665115629
  H        -8.5393957464       10.7158876986       28.6420028028
  C        -9.2190779655        9.9337285017       26.7044122472
  H        -2.4506119544       17.3801523187       34.9649806489
  C        -2.9996961647       16.0014450393       36.4712261825
  H         4.5819507841        7.5886515332       10.3874799438
  H         4.4963335591        6.0972799426       11.2981865267
  C         2.5109461845        6.8639069107       10.6526662875
  H         7.1487279978        7.6740970113       31.9898525712
  H         6.8014187688        7.1220070264       30.4335518239
  C         5.7615017479        6.0482550342       31.9778100547
  H        -9.4448346014        8.9231186968       27.0710105444
  H       -10.2153468228       10.3950513307       26.7570193199
  C        -8.7759443397        9.9733360138       25.2766738948
  S        -3.3193003889       14.3965626916       37.0443170971
  C        -3.1696351870       17.0676954955       37.4329033027
  H         2.4453463584        6.9932999141        9.5769563377
  H         2.0970630385        5.8615660697       10.8343587316
  H         1.8606152369        7.6576191427       10.9826947530
  H         6.2078219361        5.0543174626       31.8198544820
  H         4.7152671489        5.9476888453       31.8221925465
  H         5.7902364203        6.2383301258       33.0406487472
  H        -8.0462424805        9.1682500578       25.0817174654
  H        -8.2142024760       10.8647693119       25.1119331055
  H        -9.6050195814        9.9294575183       24.6302401948
  C        -3.7719325435       15.1568268924       38.4986052158
  N        -3.6552933732       16.4833562574       38.5430250181
  O        -2.9216006718       18.2025319554       37.2108080712
  S        -4.2134725213       14.2364137706       40.0075611166
  C        -3.7057250055       17.2830077013       39.7496927332
  H        -4.0878491564       18.1988016749       39.3236091616
  H        -4.4623765453       17.0019930603       40.5136538687
  C        -2.3873526642       17.4405674188       40.4688676308
  H        -2.1187047295       16.4289008579       40.7897002590
  H        -1.6398207518       17.8161930510       39.6992080037
  H        -2.4380898832       18.0663789938       41.3733125783
