352
 i =    35200, time =    35200.000, E =        24.5112378424
  H        11.3250695150        7.3970143928       32.8254153297
  C        11.3223943367        6.3564745050       32.6146257898
  H        12.3580563707        6.1648718027       32.3578311503
  C        10.4441227348        5.9539357310       31.3656659901
  C        10.8972537875        5.6637650361       33.9397147241
  C        11.1181823028        6.1037348881       30.0084609040
  H        10.2765694570        4.8665716344       31.3814646864
  H         9.3853848171        6.3059707171       31.3587323915
  H        11.7854824112        5.7936553723       34.6087427234
  H         9.9896872764        6.0290574993       34.3977323491
  H        10.8353480002        4.5601070702       33.8618455647
  C        10.0897155362        6.0714401751       28.9027749679
  H        11.8568347730        5.2789896450       29.9459420687
  H        11.7261607637        7.0177827807       29.9382932438
  C        10.6083737299        5.7142977538       27.4948477642
  H         9.4331351932        5.3309405449       29.2550043229
  H         9.6922419623        7.0993765779       28.8628833227
  C         9.4870169965        4.9708477806       26.7053337498
  H        11.4002474580        4.9810287299       27.5626356649
  H        10.8741105593        6.7039833746       27.0383894432
  C         8.3679828482        5.8793639184       26.1772373847
  H         9.8677951403        4.3903013089       25.8800912543
  H         9.1120333285        4.2467880202       27.4225310630
  C         7.2739215791        5.1233190695       25.3678465030
  H         7.8829877318        6.4919632437       26.9370168357
  H         8.9894923278        6.5179412027       25.5449696744
  C         6.9593932778        3.7285603301       26.0308626001
  C         7.7940506256        4.4610000903       24.1384254999
  C         5.7671918828        5.8190334773       25.2612975666
  C         7.2889926471        2.6514985750       25.1631175840
  C         6.4858819578        3.3069497599       27.2432397479
  C         7.7677229693        3.1424145603       23.9677849097
  C         8.3123015456        5.1749764357       23.0101013510
  H         5.8929167056        6.5465425055       24.5321192783
  H         5.5954485936        6.2782614765       26.2373370603
  C         4.5755715222        4.9958872738       24.7167765385
  S         6.9879057777        1.1337849060       25.9195900694
  C         6.4991262509        1.9581064169       27.3975944219
  H         6.0953543920        3.9995464554       27.9669715146
  C         8.2122300574        2.5387605568       22.8279346255
  H         8.4217505163        6.2277732648       22.9940061136
  C         8.7070116040        4.5902734649       21.8897889150
  H         4.7779911046        4.6945518508       23.6744386532
  H         4.5038837770        4.0481254870       25.2018082240
  C         3.2304569485        5.7859709054       24.7061927042
  C         6.0437686648        1.2526080734       28.6503848681
  C         8.6588971266        3.2825254601       21.7816257698
  H         8.1191848257        1.4152902597       22.7374751042
  C         9.1821681844        5.0256516855       20.6888861377
  H         2.4852949157        5.1235604691       24.2306558602
  H         3.1996166665        6.6773602021       23.9583067236
  C         2.6114013118        6.0864806738       26.0763143539
  C         6.0126949331       -0.1664230098       28.8374421938
  C         5.4405100095        2.0296038270       29.7825216643
  C         9.1675315378        2.5887015403       20.5910418047
  C         9.4354469428        3.9408160842       19.8959532175
  S         9.4555413539        6.5365261772       19.9410541443
  H         1.7043990886        6.6338390569       25.9069718647
  H         3.2276691007        6.6763942473       26.7172503062
  C         2.2474248368        4.7569842053       26.7681043731
  N         6.4586839541       -1.1357703837       27.9149768792
  C         5.7270966809       -0.7729434334       30.0595830892
  C         5.0020516975        1.3610336891       30.9246360761
  H         5.2060815783        3.1121469323       29.6900478429
  C         8.0914446313        1.7968169749       19.8395765066
  C        10.5166890629        1.7953189079       20.8476929279
  C         9.9786877223        4.3031105094       18.6465363790
  C         9.9363449248        5.6519210193       18.4795560959
  H         1.7704380625        4.0762949007       26.0562054876
  H         3.0889509977        4.1678748723       27.2306222662
  C         1.1629304658        4.8892585149       27.9146747294
  S         6.5243224550       -2.5872164555       28.6589511584
  N         5.9930616286       -2.1297475711       30.1358943012
  C         5.1929777725       -0.0569202049       31.1612481296
  H         4.6081265708        1.9448663552       31.6582711963
  H         8.0000197531        0.8238015973       20.2507716000
  H         8.4384138617        1.5621484054       18.9061756825
  C         6.6944534695        2.5451272327       19.7517541399
  H        10.6779580958        1.3318100288       19.9083427222
  H        10.3299779919        1.0116659993       21.5876304278
  C        11.7768315592        2.5602609455       21.2864656463
  H        10.2225829305        3.5363334915       17.9193820701
  C        10.1697714405        6.4631817416       17.2175824763
  H         0.9246692833        3.8809596841       28.2164880721
  H         0.2208115201        5.4327331281       27.5776338709
  C         1.6079906504        5.7324084665       29.1829174795
  C         4.9246342576       -0.7002489182       32.3992384901
  H         6.8361714915        3.6242324646       19.8382010567
  H         6.0009159804        2.2776284785       20.5757538753
  C         5.9603138063        2.1649170395       18.4141986970
  H        11.5902323920        2.9293937141       22.2889245363
  H        11.9281900268        3.4358280501       20.6417045270
  C        13.0841941380        1.7659450332       21.1682643383
  C        10.3074947997        7.8525233151       17.1344469844
  C        10.3728933034        5.6719479344       15.9356024938
  H         2.3473694042        6.4429326678       28.9211061997
  H         0.8532905110        6.3310533998       29.5949680445
  C         2.3184144195        4.9095573251       30.2519684929
  H         4.8108882333       -1.7891102495       32.3460644116
  C         4.6743156369       -0.2135371230       33.6760370695
  H         6.1573263107        1.1413040517       18.2227104561
  H         6.5440417828        2.6831214123       17.6601732308
  C         4.4272544830        2.6034020517       18.2879838312
  H        13.0981977589        1.0330171246       21.9564678658
  H        13.1046212860        1.3321462103       20.2356378656
  C        14.2840722822        2.5972771276       21.3638180640
  N        10.0540357475        8.7277390311       18.1891279988
  C        10.6687435287        8.4605134763       15.9431564174
  C        10.7709587337        6.3565022710       14.7913348926
  H        10.1632758969        4.6085082550       15.9584285953
  H         2.8277346172        5.4507853893       31.0144678153
  H         1.5855036088        4.1681006369       30.6855359500
  H         3.0685796072        4.3079745094       29.7587912636
  S         4.3143948361        1.4319733467       34.1776740542
  C         4.6626015708       -1.2199430071       34.7559296132
  H         4.2847277456        3.5252414622       18.7943635348
  H         4.1347399554        2.8879788700       17.2280727195
  C         3.2989374793        1.6391725996       18.7559638821
  H        14.2541908541        3.4980230855       20.7110256994
  H        15.1312525808        2.0435203911       20.9325854779
  C        14.6539121580        3.0573070894       22.7815997893
  S        10.0618978005       10.2472862866       17.5858772872
  N        10.7323437918        9.8697712095       16.1585424962
  C        10.9738255645        7.7637470434       14.8134137366
  H        10.9014930220        5.6861237052       13.9229352379
  C         4.1661882042        0.7029002824       35.7793986241
  N         4.3899001992       -0.6314181816       35.8641386942
  O         4.8435047153       -2.4507493932       34.5698505764
  H         2.2698203982        2.0346998499       18.7239448238
  H         3.6288096568        1.2942256783       19.7867970509
  C         3.2542964020        0.4948489715       17.7919778480
  H        15.3123410742        3.9242746339       22.5625644731
  H        13.7831029700        3.3754932657       23.4363700619
  C        15.4232737397        1.9832128420       23.5581138191
  C        11.2818193436        8.4388610693       13.6474455381
  S         3.6957510635        1.4878729489       37.2214612590
  C         4.3746472170       -1.4790748890       37.1361054013
  H         3.0609051307        0.8405009172       16.7736840741
  H         4.1840135919       -0.0332704965       17.8492702756
  C         2.1755888702       -0.4652726365       18.2100082484
  H        15.4476530969        1.0367212292       22.9790683532
  H        14.8956971957        1.8387193957       24.5379671712
  C        16.7698471657        2.4349963022       23.9307232403
  H        10.9870081127        9.4928435770       13.6318062412
  C        11.8938258416        8.1300888728       12.4154401439
  H         3.5027384250       -1.1983230863       37.6987604055
  H         4.0878820549       -2.5096323820       36.9616267105
  C         5.7159381344       -1.3624620761       37.8573796491
  H         1.2316420185       -0.0544695943       18.4338185146
  H         2.5843212422       -0.9323000624       19.0937261205
  C         1.9157029216       -1.6320563750       17.2970452679
  H        16.7098488075        3.3927107660       24.3695757106
  H        17.1904485385        1.7657558932       24.7047230713
  C        17.7236429511        2.4392307101       22.7086341104
  S        12.5442801055        6.6499535178       12.0274441287
  C        12.0509048277        9.2256962432       11.4362008693
  H         5.7155778146       -2.1170458117       38.6616303034
  H         6.5647771456       -1.5255536197       37.2202803448
  H         5.9551417048       -0.4466175272       38.3839119630
  H         1.1243189664       -2.2730347912       17.5951931227
  H         2.8824308851       -2.0968118527       17.0328752010
  H         1.5361768750       -1.1492181786       16.3841733477
  H        18.8139788231        2.1995043915       22.8626723747
  H        17.5355918296        3.3891136806       22.2700347844
  H        17.3900720870        1.7515824103       21.9464682761
  C        12.7973334757        7.3952503768       10.4266433692
  N        12.5899538740        8.7205799395       10.3042386700
  O        11.4962179188       10.3641449038       11.5379664221
  S        13.5475628156        6.6352176362        9.0230423447
  C        12.7878918856        9.5387519315        9.0953706599
  H        13.0718919718       10.5731446425        9.4341823769
  H        13.6224186251        9.2017158793        8.4683324710
  C        11.4805963635        9.4762713216        8.3553082829
  H        10.9386909483        8.5908463431        8.4534185729
  H        10.8218278512       10.1883717006        8.7654509905
  H        11.4897406193        9.6393316758        7.3037028093
  H        -2.7230908435       14.5443043124       15.8349421118
  C        -3.0314134321       13.6440675123       16.3031231727
  H        -4.0292532041       13.9347908132       16.7301116444
  C        -2.0793400743       13.2030206211       17.3750321551
  C        -3.2541188689       12.7438067026       15.0571404214
  C        -2.6911088598       13.4155091566       18.7214661788
  H        -1.7363922804       12.1663745947       17.2604673411
  H        -1.1649524541       13.8291936665       17.3659640683
  H        -2.3261084653       12.2773953175       14.7437755251
  H        -3.9779545284       11.9597443771       15.3303348089
  H        -3.6123503887       13.2983798086       14.2200086116
  C        -1.7650237881       12.8883521503       19.8842127573
  H        -3.7163868774       13.0595168027       18.8671723172
  H        -2.6216110150       14.4955053600       18.9535539759
  C        -2.4564183827       12.8734950049       21.2301287895
  H        -1.4799926237       11.8862069492       19.6042400658
  H        -0.8349475641       13.4160073494       19.8833027737
  C        -1.5599945070       12.2877185081       22.2922531388
  H        -3.3697729585       12.2499546749       21.2862595460
  H        -2.8161415008       13.8303949118       21.5459343678
  C        -0.3881975350       13.1782064244       22.7543416253
  H        -2.1389699109       11.9790814211       23.1642601231
  H        -1.3461445454       11.3832437852       21.7030820748
  C         0.7783463688       12.5444982497       23.4578403379
  H         0.1022919370       13.6422453660       21.9486853790
  H        -0.6897654913       13.8842586841       23.5146449657
  C         1.1268832887       11.1921582398       22.8138045280
  C         0.2823945226       11.7883529235       24.6396761045
  C         2.0352257004       13.4233624983       23.6978458773
  C         0.8804926044       10.0862889006       23.5648775077
  C         1.6345392977       10.8609171812       21.5586886553
  C         0.3940434994       10.4314951059       24.7878248424
  C         0.0254564207       12.5059527750       25.7891157965
  H         2.2444700857       14.0718062189       22.8612265987
  H         2.0529046636       14.1172356826       24.5093430932
  C         3.4457561828       12.7827811767       23.9667921680
  S         1.6309930705        8.6984936341       22.9418140941
  C         1.8869113749        9.5354675252       21.4128418833
  H         1.8263864108       11.6847204890       20.8573102996
  C         0.1474092942        9.8020019079       25.9484194580
  H         0.0783361007       13.6154767170       25.7882578273
  C        -0.2991896492       11.8034516070       26.9574342941
  H         3.7102058304       12.1140256362       23.1062524768
  H         3.4993641768       12.2041572609       24.9007512020
  C         4.5210762383       13.8143198888       24.1313531946
  C         2.4512949053        8.9670711664       20.2062120564
  C        -0.2142829471       10.4758441474       27.0976585029
  H         0.2464405674        8.7606184726       26.1514710015
  C        -0.6737324899       12.1338623722       28.2632486636
  H         5.1399079139       13.3599596393       24.9437878120
  H         4.3506040593       14.7975924519       24.6126401915
  C         5.2547530897       13.9445412764       22.7931421422
  C         2.4577536285        7.5860372190       19.9060920962
  C         2.9277646886        9.9753866706       19.1653915911
  C        -0.6047676496        9.7714244600       28.4318590769
  C        -0.9212516370       11.1123218749       29.1610154730
  S        -0.8684916073       13.7133486328       29.0583597762
  H         5.7239283470       14.8628158040       22.9251004792
  H         4.5389516773       13.9416860631       21.9299990793
  C         6.5040298739       13.0622671196       22.6591292023
  N         2.1978369868        6.4259815059       20.7846210978
  C         2.9319150894        7.0844612708       18.6803872525
  C         3.2920164485        9.4759195141       17.9199559529
  H         3.0157242924       11.0089870516       19.3343816654
  C         0.6363236765        9.1447223155       29.0878027478
  C        -1.8104191939        8.8127029916       28.2604893422
  C        -1.4221240294       11.5768581700       30.3946785893
  C        -1.4446904305       12.9050514376       30.5122244384
  H         6.9301903516       13.0202449411       23.6773208054
  H         6.0821272870       12.0743445582       22.4295328648
  C         7.5188747773       13.5417438572       21.5381271400
  S         2.4942858721        5.0982594892       20.0355285111
  N         2.9981985916        5.6932137022       18.6007083035
  C         3.3219214877        8.0268049945       17.7029364493
  H         3.7637128655       10.1860412515       17.2439142475
  H         0.9738310825        8.3329714357       28.4402648776
  H         0.2565543945        8.6927218540       30.0026299309
  C         1.7939958261       10.1264584672       29.4680829692
  H        -1.4720074036        7.8449683735       27.7896180356
  H        -2.1694884788        8.6332565235       29.2869890788
  C        -2.9824150421        9.3895514817       27.5072276018
  H        -1.8029859302       10.8414335616       31.0299757048
  C        -1.7532686005       13.6655784253       31.7504587207
  H         8.4559334083       13.0118925816       21.6170791418
  H         7.6196282755       14.5735128144       21.7741785331
  C         7.0647772550       13.3728838839       20.0864824121
  C         3.5995776614        7.4682256317       16.4268221328
  H         1.9822236846       10.6193430080       28.5279142542
  H         1.4683409550       10.7999682755       30.2871159403
  C         3.0761345914        9.4232792502       29.9813232202
  H        -2.8507656734        9.4738807877       26.4701847588
  H        -3.1717834234       10.4340128591       27.9138374597
  C        -4.2710832487        8.6138373527       27.8316946794
  C        -1.8159150327       15.0656324079       31.9256290883
  C        -2.0881074735       12.9715272862       32.9767164191
  H         7.9554336636       13.7611952799       19.4802443096
  H         6.9485723637       12.3270202868       19.8011570483
  C         5.9885941625       14.3233875326       19.5417354079
  H         3.6410654857        6.3812072536       16.4135097313
  C         3.9033587179        7.9937457598       15.2034713042
  H         3.7440445863        9.2770267899       29.1171319054
  H         2.8836814485        8.4220333748       30.4112020405
  C         3.7409206172       10.2991777845       31.0402417041
  H        -4.1209855108        7.5483838005       28.1704319642
  H        -4.5477620176        9.1735354314       28.7869546221
  C        -5.3836562238        8.8919610112       26.7728052786
  N        -1.4310242118       15.9375038731       30.8771023392
  C        -2.0102982860       15.6753595788       33.0941705705
  C        -2.4684287784       13.5836796940       34.1775820798
  H        -2.0812563002       11.8988108370       33.0088129349
  H         6.1328092428       14.3623493977       18.4838006339
  H         4.9995152855       13.9117809990       19.8488523186
  H         6.0441555736       15.3114067621       19.9333792348
  S         4.1789278982        9.6700139897       14.8655460125
  C         4.0669216331        7.0590612936       14.0716042068
  H         3.7297633852       11.2579825499       30.7227226779
  H         3.1131669754       10.3676539064       31.9177464146
  C         5.2363553610        9.8740157525       31.3796165318
  H        -6.0066283720        8.0264814000       26.6534135374
  H        -4.8841549134        9.1498532217       25.8566092700
  C        -6.3664041337        9.9231623377       27.0213358336
  S        -1.5609055375       17.5077490478       31.3822274228
  N        -1.9252187066       17.1051499022       32.9670951405
  C        -2.3810959736       15.0430561352       34.2574036800
  H        -2.7706311143       12.9699900690       34.9794255379
  C         4.3200578232        9.1214245116       13.1920371472
  N         4.3432760670        7.8123698029       13.0020849738
  O         4.1192922725        5.8470014622       14.2045058666
  H         5.5541768228       10.4930338210       32.2262235834
  H         5.9695718700       10.1514926062       30.6394840756
  C         5.4620066240        8.4423780653       31.9311714470
  H        -6.9888259102        9.7817675765       27.8953332207
  H        -5.8111944721       10.8479969625       27.2322104036
  C        -7.2017634292       10.2838416255       25.7963447340
  C        -2.5730703109       15.8340954159       35.4699642589
  S         4.8961825654       10.1357899211       11.9019680189
  C         4.4513168807        7.1585968107       11.6370240478
  H         6.2122914648        8.4010313064       32.7574776840
  H         4.4991968416        8.2699274069       32.4829849914
  C         5.6159146567        7.3838431997       30.8684374266
  H        -6.6437227676       10.2490786346       24.8136242224
  H        -7.7599289143       11.1748394518       26.0152163636
  C        -8.3475084852        9.3089556817       25.5989592818
  H        -2.5532153439       16.8727238596       35.4193489258
  C        -3.0860075172       15.5320852574       36.7353580891
  H         5.1001134421        7.8004530885       10.9647697429
  H         5.0187728702        6.2818590280       11.8184243017
  C         3.0866123102        6.9132714216       11.0078286594
  H         6.5025690283        7.4423993777       30.2123950314
  H         4.7710660221        7.3186278585       30.1737575390
  C         5.7779264108        6.0409952472       31.6042140428
  H        -8.6024489521        9.2587183676       24.6089623772
  H        -8.1201950279        8.2740174598       25.9546335414
  C        -9.7243727105        9.6651860099       26.2405830116
  S        -3.7159632204       14.0095504035       37.2652352450
  C        -3.1934857408       16.6293211085       37.6681144448
  H         2.6936616101        7.8271259711       10.6160188533
  H         3.1101031958        6.1646524461       10.1981163139
  H         2.3241501224        6.6176216556       11.8007314445
  H         6.5514662296        6.1777887572       32.2524113084
  H         5.8508328419        5.2177164601       30.9149312198
  H         4.9308302595        5.7787568006       32.2048965313
  H       -10.5681860996        9.3679834775       25.5749905178
  H        -9.7593823828       10.6949687386       26.4894762378
  H        -9.8500878808        9.1623899875       27.1921076286
  C        -4.1418429529       14.8737567738       38.7501205380
  N        -3.7982560265       16.1727945660       38.7527298401
  O        -2.7354452144       17.7729296023       37.4197351616
  S        -4.7037223331       14.1086757787       40.2437487438
  C        -3.8457570464       17.1006510112       39.9030004260
  H        -3.9924540945       18.1849848499       39.6259687755
  H        -4.8191761697       16.8931903346       40.3519157241
  C        -2.6002872810       16.9532946365       40.8537024575
  H        -1.7655033701       17.5795499604       40.4889533270
  H        -2.8452066583       17.1198058198       41.8856795263
  H        -2.1904748233       15.9639662354       40.6567131524
