352
 i =    18400, time =    18400.000, E =        25.4831923677
  H        11.9472784791        7.2599947350       32.7797893668
  C        11.7267543184        6.1817936863       32.6237897514
  H        12.6447711862        5.7826997632       32.2798688750
  C        10.5994504047        5.8998018138       31.5338241384
  C        11.3797418951        5.5714541177       33.9522021266
  C        11.1494195767        6.1724547113       30.0882961166
  H        10.4340902908        4.8540547797       31.5245111379
  H         9.6023141268        6.3122838388       31.8461423980
  H        10.8291264053        6.2264655582       34.6088890062
  H        10.9596768699        4.5851697981       33.9160938475
  H        12.3973067822        5.4674118389       34.3301666845
  C        10.3212713297        5.5103434076       29.0213213842
  H        12.2064450344        5.8718408257       30.0474908974
  H        10.8980397775        7.2267558387       29.8421474255
  C        10.9872368071        5.8277989837       27.6059011169
  H        10.1936493252        4.4502413282       29.0956763050
  H         9.2949655308        5.8411910793       29.0494132834
  C        10.1497121715        5.1466656276       26.4770961555
  H        11.9638627582        5.3488264582       27.6238073394
  H        11.2191498972        6.8918584924       27.5179554346
  C         8.8112227370        5.9771646510       26.1102206122
  H        10.7773097714        5.0264653162       25.5474805464
  H         9.9473000167        4.1895090170       26.8514500710
  C         7.6009942898        5.2436499718       25.6618345450
  H         8.5055500453        6.5537543388       26.9064055816
  H         8.9678329410        6.7241865918       25.3874583827
  C         7.3247476908        3.8997851305       26.3761188672
  C         7.8388920110        4.5660764296       24.4273622095
  C         6.3289652633        6.1783720822       25.5741973642
  C         7.2486178747        2.8910650804       25.4833923098
  C         6.8942185023        3.5427132494       27.6530389441
  C         7.7495605312        3.2682398599       24.2790882059
  C         8.1943490137        5.2750874613       23.2188224860
  H         6.5870557784        6.9918823102       24.8929253297
  H         6.0477550515        6.5413633423       26.5678720317
  C         5.1152340093        5.3907569431       24.9536653359
  S         6.5836397943        1.4660399966       26.0882897357
  C         6.5094810225        2.1984837216       27.6770689168
  H         6.8567932113        4.2666547515       28.4416126263
  C         8.0307050218        2.7187422042       23.0745382706
  H         8.2392725545        6.3256653099       23.2229462402
  C         8.4806874446        4.7604632686       22.0107846894
  H         5.3334652791        5.0946678830       23.9268733490
  H         4.9450201037        4.3907392807       25.3710789196
  C         3.9153788649        6.2334090459       24.5787346387
  C         5.9443314427        1.4583973153       28.8848093165
  C         8.4635389637        3.3964245113       21.9686929477
  H         7.9703350591        1.6572198507       22.9695052157
  C         8.7669098699        5.1640666171       20.7188373860
  H         3.3954873081        5.7197436030       23.8269116993
  H         4.3720310692        7.1342220388       24.1888278664
  C         2.9926049438        6.6346128641       25.7253839105
  C         5.9330560743        0.0471374312       29.1324767670
  C         5.4772790145        2.2777211348       30.0323411196
  C         8.6699190677        2.6797586095       20.6075332521
  C         8.9756709974        4.0745932058       19.8513643004
  S         9.0271825000        6.6835204414       19.9094110954
  H         2.0823907429        7.1929807895       25.4646486397
  H         3.5080940121        7.3272345960       26.3167650966
  C         2.3745991397        5.4146801763       26.5421919855
  N         6.3322784965       -0.9662993968       28.1715680897
  C         5.6774898256       -0.5386254900       30.3902331266
  C         5.1500634891        1.7049894369       31.2577404848
  H         5.3919774635        3.3392507539       29.8769923568
  C         7.6447976441        1.8854336598       19.7993232374
  C         9.9828998680        1.8083668414       20.7688221453
  C         9.3156365050        4.4517577262       18.5601811389
  C         9.3929553373        5.8368879867       18.3893316700
  H         1.7282603643        4.9054474229       25.7654551951
  H         3.1153133070        4.7302854778       26.9912071303
  C         1.6084172760        5.8307695478       27.7451745404
  S         6.1687603264       -2.4835622921       28.8869155441
  N         5.5959695006       -1.9529149485       30.3628369245
  C         5.2461961382        0.2666595359       31.4777912181
  H         4.6811274214        2.3354457486       31.9397586383
  H         7.3718239493        0.9945575796       20.3400934958
  H         8.0816872670        1.5164781259       18.8652124774
  C         6.3357208612        2.6360656426       19.4716114660
  H        10.0252442769        1.1076742918       19.8606145515
  H         9.9095669922        1.1249057563       21.6292732089
  C        11.3334794146        2.4443715978       20.8092485092
  H         9.4594272639        3.6363630067       17.9363225477
  C         9.8078460583        6.4919824534       17.1243336639
  H         0.7033793675        5.1438464702       27.8014871450
  H         1.4455803681        6.8633482854       27.6498886101
  C         2.4082753127        5.7925153683       29.0108292833
  C         4.9801623245       -0.3504102808       32.7452131296
  H         6.5637646303        3.6763129381       19.2565055685
  H         5.7848155928        2.7755670371       20.4099540555
  C         5.5014913053        1.9434376330       18.4475849275
  H        11.3513697383        3.0224006943       21.7420719482
  H        11.5620043718        3.1220429878       19.9610204475
  C        12.4822739809        1.3646932863       20.8219883349
  C         9.8020650696        7.8689209200       16.8574266644
  C        10.3165572270        5.7049844567       16.0052615708
  H         3.0224369857        4.9000063535       29.1980684706
  H         3.1647357458        6.5794417273       28.8852791618
  C         1.4807283030        5.9054425477       30.1877209485
  H         4.9807282033       -1.3652583157       32.7105852066
  C         4.7316394406        0.1748155303       34.0052639331
  H         5.2662706026        0.9177459214       18.8001523914
  H         6.1303568614        1.6911338144       17.6249685349
  C         4.3169775248        2.6984604651       17.7959506274
  H        12.4671029604        0.7658704593       21.6874164459
  H        12.2722674410        0.5884295530       20.0342192079
  C        13.9072036239        1.9654713719       20.5799817271
  N         9.4043232947        8.8929058336       17.7587862100
  C        10.1993441549        8.4139113418       15.6293803486
  C        10.7790752082        6.2306374869       14.8005757242
  H        10.2157470066        4.5863743913       16.0347977330
  H         0.8011168303        6.7184106952       30.2027536116
  H         0.8883832710        5.0176129793       30.4292525313
  H         2.0153981337        6.2227189748       31.0400410810
  S         4.5399976806        1.8005696999       34.4477807132
  C         4.7070015407       -0.6658924639       35.1438544103
  H         4.2336590889        3.7273442691       18.1908321614
  H         4.5189686503        2.7726485640       16.6570269462
  C         2.9706610184        1.9943296101       17.8958312360
  H        13.9061415496        2.6915998858       19.7898280859
  H        14.6997558211        1.2672061098       20.2818018634
  C        14.3002217739        2.6420105014       21.8744773976
  S         9.4359709644       10.3447810238       16.9700770341
  N        10.0746005708        9.7960090532       15.5967089296
  C        10.6848336083        7.6682773854       14.5449813469
  H        11.0944355660        5.5512951789       14.0316113747
  C         4.3293782043        1.3019904562       36.1479657737
  N         4.4196253460       -0.0441527669       36.2955259500
  O         4.8826691309       -1.8434298980       34.9831683969
  H         2.2962903170        2.5221345508       17.2720240219
  H         2.4630060666        2.1270393399       18.8128631067
  C         2.9435255167        0.4995424891       17.4325444733
  H        15.1400581695        3.2930099946       21.6447917082
  H        13.5443957452        3.2623029816       22.3348164915
  C        14.8478596831        1.6231348035       22.8347063681
  C        11.0311002718        8.3820070669       13.3077987550
  S         3.9088796839        2.3904962158       37.5203489053
  C         4.0956919891       -0.7726384496       37.5646844930
  H         2.5175347063        0.4830198477       16.4180410647
  H         3.9988993512        0.2939396827       17.2236907219
  C         2.3367034638       -0.4368998511       18.5507203110
  H        15.1928371587        0.7449152879       22.2674053837
  H        14.0745418339        1.2586966938       23.5377454056
  C        15.9960167926        2.1590718620       23.6141786415
  H        10.7392438132        9.4503499308       13.3869440019
  C        11.6602594393        8.0042415970       12.1411655155
  H         3.2344652115       -0.2363800792       37.9909371363
  H         3.6699102833       -1.8410201783       37.3786468416
  C         5.2133715147       -0.6596997310       38.6669711164
  H         1.3081485758       -0.0233331074       18.7920830537
  H         3.0083665155       -0.3708379424       19.4508828578
  C         2.2103554953       -1.8417870739       18.0245468240
  H        15.7033973270        3.1853165892       23.9319471107
  H        16.0881618183        1.4784960970       24.4784023735
  C        17.4281493147        2.1100674469       22.9255841313
  S        12.1054168544        6.4071637844       11.7326979740
  C        11.7155758091        9.0316834613       11.0894485031
  H         5.6824881315       -1.5872445484       38.7467977037
  H         6.0399907186       -0.0476583273       38.2453307607
  H         4.7807910910       -0.2330385062       39.6360278875
  H         1.3339866755       -2.3488089928       18.4462944333
  H         3.0918098892       -2.3684827790       18.2830861252
  H         2.2872960496       -1.8626536719       16.9196864058
  H        18.2517170523        2.0325520133       23.6467372715
  H        17.5630043875        2.9735517056       22.3359854080
  H        17.4531886334        1.1954088148       22.3123265178
  C        12.4356868423        7.0882968732       10.0834241381
  N        12.1768671492        8.4624946207        9.9397080684
  O        11.3905507702       10.2059069992       11.1953906004
  S        13.0097779219        6.2103750984        8.7441566567
  C        12.4413334608        9.2304773675        8.7820922361
  H        12.8764870333       10.1918387543        9.0444874351
  H        13.1949021317        8.7708578776        8.1277906124
  C        11.1395624240        9.4690888166        8.1277695582
  H        10.8230067952       10.5198831361        7.8701340599
  H        11.1381828035        8.9104292891        7.2409003592
  H        10.3659069835        9.1370899692        8.8155880605
  H        -3.1175591982       15.2010386695       16.5891911485
  C        -2.8341791845       14.1270918783       16.5757280781
  H        -3.7539602021       13.5565908355       16.8283062403
  C        -1.7492656041       13.9490042444       17.6373593033
  C        -2.3140860325       13.7783720236       15.1108959891
  C        -2.3350764845       13.3642793588       18.8526698709
  H        -0.8670997897       13.4192664537       17.2667965722
  H        -1.3488707677       14.8957114359       17.9089109848
  H        -3.1403276636       14.0595197440       14.3650754329
  H        -1.5547032440       14.4728360417       14.8561675754
  H        -2.0375487107       12.7750517996       14.8883854799
  C        -1.2282882231       13.2446679303       19.9369866454
  H        -2.8935188856       12.3931139632       18.6319909716
  H        -3.0985886026       13.9957868768       19.1606794831
  C        -1.8242048497       13.4771634509       21.3503504286
  H        -0.7741715786       12.2305011973       19.8970551768
  H        -0.4110696497       14.0599013082       19.8909038393
  C        -1.0952619306       12.7474300943       22.4965691857
  H        -2.8706590431       13.2029554135       21.3839691583
  H        -1.8133591293       14.5472950265       21.5026475313
  C         0.0590390469       13.6631381437       22.7458207645
  H        -1.5408666534       12.7653692353       23.4178184525
  H        -0.8772478776       11.7125614651       22.2505811152
  C         1.2100478097       13.0137339763       23.5383931528
  H         0.4299919509       14.0542993715       21.8171511197
  H        -0.2674343266       14.5432377404       23.2824413617
  C         1.4837374254       11.6652899315       22.8698540444
  C         0.7861323354       12.3210505572       24.7864349392
  C         2.5132933419       13.7370606958       23.5412104578
  C         1.2075775295       10.5422835959       23.6794374496
  C         1.9056011738       11.3095020762       21.5875899441
  C         0.8044185165       10.9447546142       24.9005063099
  C         0.4363212069       12.9630456244       25.9528612440
  H         2.7760626873       13.8217564728       22.4496468613
  H         2.3107736124       14.7845577843       23.8868429664
  C         3.6683790056       12.9911834200       24.3449789538
  S         1.5338853034        9.0355559819       22.8587660412
  C         1.9829178320        9.9790008086       21.4224770008
  H         2.0947136467       12.1692123772       20.9161680992
  C         0.3821537840       10.4111659719       26.1370621172
  H         0.5797967326       13.9891046752       25.8332300647
  C         0.0502198452       12.4647682045       27.1492166161
  H         4.0430930863       12.1230603204       23.8192009885
  H         3.2300590142       12.5212130124       25.2229141533
  C         4.7215668532       13.9688917395       24.6108418500
  C         2.3041575639        9.2383441150       20.1501217329
  C         0.0133371652       11.1025267723       27.2828169196
  H         0.3976978167        9.3666626550       26.1490019237
  C        -0.4260062082       12.8817372126       28.3422912693
  H         5.2581306769       13.5697275213       25.4729277525
  H         4.3639647709       15.0270762714       24.9587966444
  C         5.5976831878       14.2919520544       23.3404799741
  C         2.3432233964        7.8036019730       19.9841580055
  C         2.7047447278       10.1038231297       19.0217072447
  C        -0.4096824942       10.4701081772       28.5639881112
  C        -0.6915520142       11.8505548410       29.2013683409
  S        -0.6558157570       14.4351496852       29.0182268545
  H         6.2357849334       15.1355679384       23.6189839373
  H         4.8819483956       14.6544913888       22.6609278452
  C         6.4626534053       13.1666354231       22.6595997319
  N         2.0507086913        6.8426363655       20.9308114990
  C         2.6488007385        7.2201811341       18.7994499572
  C         3.0225964829        9.4739275703       17.8316271241
  H         2.6093037601       11.1609592169       19.0271438544
  C         0.7008168598        9.7230253600       29.3760742379
  C        -1.7682799751        9.6937929616       28.2935515899
  C        -1.0381527881       12.2998651235       30.4348429178
  C        -1.0647051510       13.6436762412       30.5155840097
  H         7.2605933133       12.9063769214       23.2610773412
  H         5.8001193251       12.2575902039       22.4186488075
  C         7.0540518964       13.4591342368       21.2784922145
  S         2.1869294643        5.3748613520       20.2986551671
  N         2.6122298995        5.8131512670       18.8130112405
  C         3.0088300720        7.9965162398       17.6845829973
  H         3.1934267110       10.0629744251       16.9803623328
  H         0.9530266410        8.9434158596       28.6407634885
  H         0.1821410873        9.3006091739       30.2334655540
  C         1.8692033986       10.6558720789       29.7976261197
  H        -1.5059188357        8.9556932196       27.5312178495
  H        -2.0369218388        9.2090061045       29.2638273064
  C        -2.8792707036       10.6818739376       27.8307991879
  H        -1.0561808860       11.5966624088       31.2288514380
  C        -1.4044088680       14.5013736495       31.6992945883
  H         7.5288472265       12.5752150060       20.8684133808
  H         7.7985863509       14.2157029718       21.3358245186
  C         6.0836628886       13.9398651697       20.2161903295
  C         3.2393258109        7.2883142310       16.4505114195
  H         1.9617574816       11.2740312332       28.9361206164
  H         1.6138846121       11.3148055743       30.5243615007
  C         2.9511667119        9.8782667453       30.4496432769
  H        -2.5474479831       11.3879880770       27.0649027571
  H        -3.1270542970       11.3197303951       28.6433977998
  C        -4.1004360902        9.8858763095       27.3251425530
  C        -1.6055289807       15.9323254640       31.6918780622
  C        -1.7309940294       13.8294093112       32.9996986543
  H         5.1528176380       13.3911009027       20.3132727366
  H         5.9469530238       14.9843146640       20.4903251060
  C         6.6060449776       13.7503751015       18.8228568340
  H         3.2197851654        6.1954957252       16.5147161749
  C         3.6671864595        7.6497088424       15.2229001206
  H         3.1422797891        8.9780278567       29.9769920268
  H         2.6712671090        9.6778605525       31.5189315448
  C         4.1846664079       10.7156627461       30.5146464117
  H        -3.8227043423        9.4986029810       26.3093804963
  H        -4.1784671189        8.9472510772       27.7963689757
  C        -5.4111234888       10.7335636012       27.2136492715
  N        -1.5042306557       16.7598888033       30.5534952487
  C        -1.9389100999       16.6411376581       32.8487451253
  C        -2.0881523825       14.6163286856       34.1532317241
  H        -1.6067775006       12.7655014097       33.1204504629
  H         6.6626685243       12.6772259051       18.6378648179
  H         5.9320764534       14.1653570965       17.9822858416
  H         7.6539231932       13.9466504226       18.7035588992
  S         3.8201682401        9.3077736346       14.7306204285
  C         3.8782941766        6.6507694296       14.1772211146
  H         4.2364598466       11.4807890130       29.7553591307
  H         4.2827077514       11.3065278845       31.4344235266
  C         5.6375093393       10.0920453226       30.4907321712
  H        -5.2695465597       11.6317643552       26.6574536573
  H        -5.7907131353       10.9695611056       28.1757874660
  C        -6.5437704708        9.9323621395       26.6025375128
  S        -1.5369413212       18.3236771382       31.0036289059
  N        -1.9577178610       18.0388180892       32.5959576416
  C        -2.2790545316       16.0921434916       34.0696388579
  H        -2.1464495224       14.1432078364       35.1081816843
  C         4.2052492408        8.6333933172       13.1505250406
  N         4.2819118358        7.2810532067       13.0632013401
  O         3.9039013708        5.4116723303       14.3892858529
  H         6.4045421647       10.7646604340       30.8205879628
  H         5.8573883269        9.8691100334       29.4027768824
  C         5.6636253586        8.6956019567       31.2508157458
  H        -6.2710877117        9.8352060171       25.5214378108
  H        -6.7709047535        8.9416829819       26.9837014646
  C        -7.8161125073       10.6513544889       26.5917606396
  C        -2.5723187243       16.9181102764       35.1517619298
  S         4.6798717589        9.6644989804       11.7734876427
  C         4.5524930807        6.6030961415       11.8627985615
  H         6.1419216566        8.9518712457       32.1867764146
  H         4.6613253552        8.3477370585       31.5442597151
  C         6.5301890681        7.6941199985       30.4955927739
  H        -7.6977556344       11.5447800829       26.0217850057
  H        -8.0267204802       10.9641917729       27.6336631773
  C        -8.9528161327        9.7594349921       26.0598909836
  H        -2.3595046508       18.0174137823       35.0966642243
  C        -3.1193332622       16.7152976535       36.3770568785
  H         5.3334713004        7.1626058745       11.3517529965
  H         4.9689043283        5.6261483017       12.1661839245
  C         3.2439339061        6.4376660718       11.0495333714
  H         7.4812828954        8.1289522842       30.2463431391
  H         6.1901215266        7.4320087526       29.5457448961
  C         6.7317780743        6.3116479511       31.0891913114
  H        -8.9741940011        8.8691278499       26.6707339836
  H        -9.8625656520       10.2930968427       26.1572952772
  C        -8.8199000527        9.5085651463       24.6002823169
  S        -3.6503930687       15.1535118473       36.7727992703
  C        -3.2808135564       17.8039058489       37.3336008494
  H         3.1600852060        5.6131762756       10.3640505685
  H         2.4964824275        6.2783374439       11.7743083747
  H         3.1333977239        7.3641845717       10.5305253963
  H         7.4805689768        5.7829479634       30.5833618957
  H         5.8802360210        5.6088243959       31.1090148008
  H         6.9854343645        6.4559416925       32.0953382133
  H        -7.8960820559        8.9877641250       24.2675607910
  H        -8.7216608377       10.4731695701       24.2489518804
  H        -9.6873302705        9.0403745591       24.1648897497
  C        -3.9779812045       15.9995671631       38.3527039015
  N        -3.8176589192       17.3282984884       38.4188229242
  O        -2.9580948769       19.0074838337       37.1079963171
  S        -4.5671628195       15.2000754266       39.7946666915
  C        -4.0404707935       18.1191475124       39.6430832984
  H        -4.2213699271       19.1095683605       39.3117842913
  H        -4.9034276266       17.7095691700       40.1169784595
  C        -2.8045345350       18.0285075693       40.5605293825
  H        -2.9268759033       17.1004281260       41.0687138316
  H        -1.8269438853       17.9448093653       40.1060347737
  H        -2.8347048781       18.7666245291       41.2951757610
