352
 i =    91000, time =    91000.000, E =        25.0075361820
  H        10.0106901714        6.8048168146       30.7966896561
  C        10.9437233592        6.5386116650       31.2374257960
  H        11.5844110639        7.4128846165       31.1720182548
  C        11.5639074716        5.4734934096       30.3786604134
  C        10.7398217006        6.0667381044       32.7155334008
  C        10.6313800974        4.2849542514       29.9519758194
  H        11.9120393036        6.0335415337       29.5288518335
  H        12.4233710461        4.9860152395       30.9711251331
  H        10.7937864222        6.9149959075       33.3838545411
  H         9.7407486653        5.7505121107       32.8396504796
  H        11.4306200987        5.2435220956       33.0919668729
  C         9.7281925657        4.6784659753       28.7500184296
  H         9.9502139577        3.8848510915       30.7147910783
  H        11.3166439762        3.4505875037       29.5951985067
  C        10.6653071795        4.8773182067       27.4485261361
  H         9.2073876512        3.7358353277       28.4705508293
  H         9.0102558100        5.5013085247       28.9273088454
  C         9.8958316569        4.5235643114       26.2207390267
  H        11.5289610423        4.2978920096       27.4750142240
  H        10.9481478365        5.9098246937       27.3098245886
  C         8.5687012846        5.3445481590       26.0816732683
  H        10.4169844952        4.5856963519       25.2823313565
  H         9.7152686148        3.4103740332       26.3037377238
  C         7.4160120710        4.6362710180       25.3740385536
  H         8.1823588809        5.7591335396       26.9907827430
  H         8.8824533823        6.1760962269       25.4044008839
  C         6.9476608136        3.3784155248       26.0411743014
  C         7.7902203266        3.9457932321       24.1215874380
  C         6.2486608322        5.5331468454       24.9891517815
  C         7.1658238832        2.2052945986       25.3347493788
  C         6.4451799741        3.0938832933       27.3100739088
  C         7.7655484268        2.5805759504       24.0491289377
  C         8.1935372031        4.6439658824       23.0008336038
  H         5.7348820093        4.9552172204       24.2176057341
  H         6.5029666565        6.4131581589       24.3784139737
  C         5.2342820469        5.9277097750       26.1279522080
  S         6.6845564327        0.7660898828       26.1747046247
  C         6.2400699229        1.7554737146       27.5452060682
  H         6.2156634442        3.9174664220       27.9508432820
  C         8.2220143956        1.9649800881       22.8882038994
  H         8.2339964953        5.7650911777       23.1600330126
  C         8.5462646235        4.0303941583       21.8376782656
  H         5.5745677427        5.7368087164       27.0881777515
  H         5.1124711271        6.9977827590       26.1053595260
  C         3.9593979456        5.2251152265       25.9402301627
  C         5.7320460022        1.0934483461       28.7780272465
  C         8.6663946175        2.6928401596       21.7938729274
  H         8.2866735702        0.8961544849       22.8477174153
  C         8.9603918522        4.4243772360       20.5747072629
  H         4.0558550297        4.1329450148       25.8225513898
  H         3.6591303066        5.4316531367       24.9493323640
  C         2.9004023073        5.4983609895       26.9873485182
  C         5.8183591110       -0.3201377139       29.1378275968
  C         5.2930310585        1.9614418322       29.9051778338
  C         9.0759668828        1.9537270210       20.5427617773
  C         9.2175552423        3.3413211245       19.7816382627
  S         9.1111920004        5.9208065873       19.7620867641
  H         2.0354796765        5.7006716190       26.3773426481
  H         3.0621502497        6.3770561768       27.4599015484
  C         2.5220340920        4.4097980561       27.9760671231
  N         6.1988958270       -1.2285877553       28.2510358271
  C         5.6035213559       -0.7715820028       30.4497964478
  C         4.9839815794        1.5113563819       31.1596437034
  H         5.3183868738        3.0455996412       29.7708626102
  C         7.9273094156        1.0575767648       19.9512787206
  C        10.4136593610        1.2628931884       20.6847598925
  C         9.5615017060        3.7176072279       18.4589506865
  C         9.5577839394        5.1268316791       18.2846006120
  H         2.2528748245        3.5554430397       27.3734342561
  H         3.3886772687        4.1575791104       28.5513549200
  C         1.4447903389        4.9885014191       28.9897194950
  S         6.1136961483       -2.6829257603       29.0212192047
  N         5.9026205255       -2.1256944698       30.5060400724
  C         5.3094484693        0.0773389071       31.5601595283
  H         4.7341892827        2.1752092230       31.9671303046
  H         7.6947183533        0.3072316932       20.7046100237
  H         8.3599908332        0.4970074686       19.0964987139
  C         6.6185616219        1.8771759903       19.7162074930
  H        10.5542808378        0.7091169452       19.8045282896
  H        10.3446269823        0.4977434325       21.4530460584
  C        11.6376039961        2.0953756109       21.1839287288
  H         9.7123028895        2.9292584233       17.8073320516
  C         9.7957526896        5.9157303998       17.0251424683
  H         0.8162306450        4.1613222454       29.3534247955
  H         0.7140065138        5.6905190345       28.5072140450
  C         2.0001112477        5.7117337345       30.1442284676
  C         5.2049766480       -0.4948392099       32.8959733299
  H         6.7071837984        2.6057324855       18.8952018730
  H         6.2323576601        2.3965872830       20.6159814515
  C         5.5686073923        0.9269442506       19.3001109668
  H        11.4927881792        2.7168622378       22.0943426335
  H        12.0430094587        2.8099217563       20.4525258130
  C        12.7965744366        1.2539836291       21.7246481055
  C         9.8201038354        7.3194588262       16.9630255578
  C        10.0109988402        5.2703314961       15.7305274629
  H         2.8553501559        6.3069435832       29.8585707926
  H         1.2141929137        6.3994664298       30.4498426020
  C         2.4132362648        4.8218240472       31.3038170137
  H         5.4727638448       -1.5046126095       32.9565131900
  C         4.9221424127        0.0570316487       34.0857797958
  H         5.0523098336        0.4034135945       20.1517348185
  H         5.9908745383        0.1161876949       18.6541440265
  C         4.4756033272        1.6635108898       18.4600977336
  H        12.5026686012        0.4340104340       22.4265408399
  H        13.1617070545        0.9203898710       20.7150262064
  C        13.8526324198        2.1185538874       22.5275941869
  N         9.5622410369        8.1911723791       17.9903860484
  C        10.0246743778        8.0529915985       15.7838930482
  C        10.2614196694        5.9992469948       14.5407878945
  H        10.0950323097        4.2310353776       15.6015039050
  H         3.1044204750        5.3362840946       31.9788314701
  H         1.5286576398        4.4111776841       31.8200606811
  H         2.9348017780        4.0378006900       30.9140111368
  S         4.4035827234        1.6805568075       34.4367525065
  C         5.0024040469       -0.8696058681       35.2174330499
  H         4.5039390448        2.6729090951       18.7751738193
  H         4.7509144517        1.6295541225       17.4434673776
  C         3.1095879698        1.1219296668       18.6899565942
  H        13.4828382175        2.5517328539       23.4294538950
  H        14.1283515648        3.0013448817       21.9442798312
  C        15.0483133604        1.3036024908       22.8539192398
  S         9.7191381218        9.6983542453       17.5094631061
  N         9.9691326114        9.4286941046       15.9733013715
  C        10.3417869361        7.4596465019       14.5617000003
  H        10.5574181857        5.4011840250       13.6542001844
  C         4.2939050461        1.1247167025       36.1151667997
  N         4.6276315819       -0.1865014329       36.2950700291
  O         5.1493672966       -2.0870904247       35.1101553312
  H         2.6236717802        1.6611785887       17.8881328926
  H         2.6305370270        1.4530525688       19.5882975221
  C         3.0942940710       -0.3564630330       18.3514913345
  H        14.7483447514        0.3271702727       23.3978113636
  H        15.5308523314        0.9507735740       21.9164242810
  C        16.0679327450        2.1590169968       23.7679571674
  C        10.6481713351        8.2207941417       13.3930280667
  S         3.9358716665        2.1023949871       37.4248820110
  C         4.6667530065       -0.8939068230       37.5326195932
  H         3.7024729567       -0.6022615537       17.4979201602
  H         3.4132003189       -0.8854757768       19.2216520883
  C         1.6775142952       -0.7693553696       18.1589937119
  H        15.6031872417        2.1954296902       24.6936383360
  H        16.0335778453        3.1757330779       23.4809554637
  C        17.5206181350        1.7341045978       23.9464759818
  H        10.3795209456        9.2383552582       13.4387667193
  C        11.3139459239        7.8736325736       12.2415851485
  H         4.0887430809       -0.3941978750       38.2248747691
  H         4.1190241160       -1.8942634584       37.3097103351
  C         6.0999977436       -1.1704098248       37.9542372121
  H         1.2580692310       -0.0767875164       17.4451735191
  H         1.0444820262       -0.5650086090       19.0015211298
  C         1.5756098722       -2.1891090542       17.5646919371
  H        17.9711869049        2.1186050730       24.8604205122
  H        17.6376069416        0.6510915973       24.0907148792
  C        18.3567163329        2.1360827067       22.7879823324
  S        11.9345540238        6.3915991223       11.7075666856
  C        11.3202536495        8.9030311269       11.1942909122
  H         6.7952820920       -1.2770874703       37.0805351967
  H         6.4392839416       -0.3111493037       38.5466228733
  H         6.1587399987       -2.0583778429       38.6594431085
  H         1.7488056101       -2.9461123880       18.2797910634
  H         2.1604090363       -2.2784173825       16.6625130217
  H         0.5642534099       -2.4754931460       17.2271144706
  H        19.4277320519        2.2152074795       23.1565992416
  H        18.1187503614        3.1150618571       22.4525215496
  H        18.1329516075        1.4656906559       21.9048452712
  C        12.2398311211        7.1415298976       10.1661255080
  N        11.9364133620        8.5011325484       10.1217156818
  O        10.8066901109       10.0279103060       11.3797180687
  S        12.8816331864        6.3296538076        8.7459294168
  C        11.9463633580        9.3307422571        8.9367616630
  H        12.1408398311       10.3999600000        9.1833543148
  H        12.7315843128        8.9833757193        8.2754514039
  C        10.6782271395        9.1572004453        8.1388440119
  H         9.9609434459        8.4928128290        8.5693436341
  H        10.1424921827       10.0897585141        8.0803551194
  H        10.8211361824        8.6274174058        7.2080393678
  H        -3.7898862993       12.8080597798       16.6710217115
  C        -2.8412226442       13.3329666570       16.8491796364
  H        -1.8950450379       12.7238812795       17.1767292486
  C        -3.1295558513       14.3770722557       17.9104619752
  C        -2.3636362255       13.7118994632       15.4453793605
  C        -3.4398203099       13.6723129825       19.3045389472
  H        -2.2449724553       15.0581476079       18.0499583195
  H        -3.9735312884       14.8800963812       17.4506790586
  H        -1.6021352837       12.9969626916       15.0348950892
  H        -3.1955173310       13.6939829627       14.7273085850
  H        -1.8367046436       14.6887830972       15.4295757833
  C        -2.1971916618       13.3151677588       20.1969670277
  H        -4.0030281853       12.7832414287       19.2225794461
  H        -4.0463701243       14.3340032311       19.9166623103
  C        -2.5359256220       13.3521692645       21.6616387074
  H        -1.7874978794       12.3815008535       19.7923878570
  H        -1.3752076903       14.0267399241       19.9879921097
  C        -1.5617932624       12.6185783448       22.5424166186
  H        -3.5163604580       12.9742490457       21.8661600145
  H        -2.5371529603       14.4007237683       22.0205181285
  C        -0.3004794479       13.4522788239       22.7343255671
  H        -2.0363168152       12.2689115795       23.3630831887
  H        -1.4193864902       11.6530093113       22.0894764394
  C         0.9297751206       12.7500451668       23.3762823580
  H         0.1561335135       13.9197406798       21.8614069495
  H        -0.5741172126       14.2654010561       23.4693937967
  C         1.2200127686       11.4981200215       22.6443757121
  C         0.5933095514       12.0111864906       24.6243421246
  C         2.1348640177       13.6338385795       23.5378641521
  C         0.9170934612       10.3518256305       23.3837082104
  C         1.6170044898       11.1249900036       21.3356244417
  C         0.5089587999       10.6641016772       24.6610469217
  C         0.0928581533       12.7239820921       25.7514440501
  H         2.3486523560       14.1784377022       22.5533292708
  H         1.9148826693       14.4125024620       24.2455577330
  C         3.3691530028       12.8446631553       23.9812103142
  S         1.1491431741        8.8814775429       22.6009472965
  C         1.7681701454        9.6980972351       21.2201437232
  H         1.7153886825       11.8567690039       20.5838592485
  C         0.3352285369       10.0221287048       25.8444320657
  H        -0.0246085620       13.7509152242       25.7718106308
  C        -0.1194563526       12.0816657588       26.9219799118
  H         3.5916613677       11.9623447793       23.4087081942
  H         3.1589768194       12.4719091233       24.9446914388
  C         4.7096103386       13.6216511266       23.9257870040
  C         2.1943046622        9.0628414987       19.9314017285
  C        -0.0198982682       10.6917504464       27.0161866270
  H         0.2742760064        8.9426674604       25.8072980021
  C        -0.5357702389       12.4470984886       28.1924276623
  H         5.3705164487       12.9674981011       24.5569202130
  H         4.5865559545       14.5335555927       24.4100995743
  C         5.2190636730       13.8501453874       22.5271890206
  C         2.2998238539        7.6712483263       19.7236427683
  C         2.5879899709        9.8932026525       18.7282554494
  C        -0.4571798834       10.0265309253       28.2249826948
  C        -0.7266597009       11.3140426772       28.9573384965
  S        -0.7446616676       13.9602622141       29.0099581226
  H         5.7422670454       14.8815574106       22.5318189445
  H         4.2870024867       13.9458876673       21.8994034127
  C         6.1244176888       12.7114530346       21.9898245949
  N         2.0178898068        6.7142199447       20.6399736872
  C         2.5494157935        7.1231695938       18.4426391642
  C         2.7980965363        9.3600459990       17.4502759117
  H         2.6298053445       10.9897160775       18.7423662559
  C         0.7276413992        9.2224651948       28.7272836625
  C        -1.7007221583        9.0221667892       28.1679678764
  C        -1.1160885843       11.6500995037       30.1965632302
  C        -1.2174690648       13.0127020415       30.3710548855
  H         7.0951092215       12.6412438328       22.5438502512
  H         5.7619605471       11.7734386568       22.1052159632
  C         6.5556131644       13.0315212192       20.5835829944
  S         1.9200831191        5.2188228099       19.9475391940
  N         2.4388436548        5.7121982124       18.4845756242
  C         2.9191054148        7.9036389062       17.2970759057
  H         3.0491371925        9.9694222097       16.6695003466
  H         0.8727439556        8.3592312163       28.0584866897
  H         0.4381767140        8.7836167768       29.6685017957
  C         2.0314252742       10.0783186884       29.0128603075
  H        -1.5053364360        8.0960486231       27.6264593724
  H        -1.9345061846        8.6385573922       29.1727632804
  C        -2.9753716145        9.6885495255       27.6568949049
  H        -1.4506709100       10.8353454808       30.8694478715
  C        -1.4625214146       13.6796616310       31.7090791143
  H         7.4904839772       12.3878542301       20.4271251179
  H         6.8140447056       14.0531366734       20.3861067236
  C         5.4860536656       12.6472231474       19.5965483781
  C         3.1739727664        7.2290279986       16.0420689036
  H         2.5960090775       10.3770510482       28.1135483848
  H         1.7699904412       10.9871076839       29.5317403607
  C         2.9888057111        9.2042283699       29.8743593098
  H        -2.8972021314       10.1402216370       26.6447558905
  H        -3.1197481571       10.5984440294       28.2313102891
  C        -4.1920613361        8.7169776464       27.6654054275
  C        -1.6326591243       15.1044489809       31.9012684576
  C        -1.7697742404       12.8767484315       32.8885925343
  H         5.2136488017       11.5805589987       19.7440273363
  H         4.5826848782       13.2191782566       19.8012614800
  C         6.0186710745       12.7695854098       18.1007630879
  H         3.1672030689        6.2132062958       16.0580182539
  C         3.5097876304        7.7247163070       14.7473737695
  H         3.4763298072        8.4569543666       29.2427038849
  H         2.4011617212        8.6910081573       30.6046813245
  C         4.0748898026       10.1524882214       30.5537469204
  H        -3.9484551253        7.9767017892       26.9875241032
  H        -4.0550046907        8.2753554797       28.6796878618
  C        -5.6416414747        9.3121228815       27.5062424095
  N        -1.3792346033       16.0588598095       30.8776192594
  C        -1.7851632192       15.7442902117       33.1097228909
  C        -2.0651968433       13.5258610932       34.0719736609
  H        -1.6749402235       11.8219198715       32.9495476367
  H         6.9242210635       12.1529898873       17.9999841145
  H         5.2382202356       12.5846267767       17.3199134872
  H         6.4259726115       13.7257385106       17.7846846938
  S         3.7422210449        9.3676948018       14.2276263608
  C         3.5654031509        6.7313270072       13.6102374748
  H         4.5940911747       10.6989785317       29.8304087532
  H         3.6401887325       10.7180587511       31.3336587948
  C         5.2060680826        9.3405451194       31.1969836688
  H        -5.5734228085       10.1376966566       28.1144882822
  H        -6.2756239581        8.5356922938       27.9090809991
  C        -6.0069423547        9.6432250367       26.1131104045
  S        -1.4518869518       17.5674389413       31.5730880772
  N        -1.7745778147       17.1038676476       33.0735068914
  C        -1.9944981122       15.0074186694       34.2901468635
  H        -2.3229248400       12.9759357247       34.9531484336
  C         4.0389112676        8.7381888521       12.6802839859
  N         4.0230992794        7.3877214972       12.5562512771
  O         3.3979466964        5.5351912846       13.7859163420
  H         4.8874203662        8.7217638154       31.9938685769
  H         5.9851471181        9.8836208273       31.7246994864
  C         5.9689502857        8.4343543092       30.1755871616
  H        -5.3453241583       10.4158077214       25.7974064498
  H        -5.8711148457        8.8162259896       25.4929341686
  C        -7.4324097345       10.1816770599       25.9591041267
  C        -2.3083641436       15.7568560516       35.4356188302
  S         4.5533262906        9.7432696616       11.3429773133
  C         4.1158576559        6.7137292323       11.2748501319
  H         5.6372383065        8.5730345780       29.1475284372
  H         7.0468794367        8.5691253964       30.3675746470
  C         5.6734670267        6.9446857144       30.4064932311
  H        -7.6120531808       10.2456203792       24.8819989000
  H        -7.5189417537       11.2809778040       26.1920961273
  C        -8.5791338822        9.2856111159       26.4620297311
  H        -2.0793743475       16.8452724809       35.3800400476
  C        -2.8994931590       15.4789908194       36.6254657191
  H         4.6000684527        7.3935252295       10.4921434374
  H         4.6145111821        5.7465158172       11.3711668008
  C         2.7441368785        6.5611281420       10.6529455889
  H         5.4169606368        6.5772816034       29.4309362525
  H         4.7717460638        6.8486873943       31.0628995674
  C         6.7884590390        6.1087501024       30.9682153666
  H        -8.3016646978        8.2318953087       26.3316155909
  H        -8.5673699786        9.3981348399       27.5504254777
  C        -9.9800102004        9.5164557933       25.8431351386
  S        -3.5381958410       13.8818835459       37.0862275535
  C        -3.0900749231       16.5385851056       37.6814702404
  H         2.2148874943        5.7220451594       11.1228635267
  H         2.0417029218        7.3781258466       10.7473056579
  H         2.8365191208        6.3792302456        9.5581443221
  H         6.5073791620        5.0933270736       30.7473979848
  H         6.8729443161        6.0956003567       32.0337573450
  H         7.8116780752        6.3593436712       30.5432414801
  H       -10.0718950410        9.0617884908       24.8869595349
  H       -10.0887477028       10.5300351202       25.6688645122
  H       -10.7374172979        9.0554843504       26.5136032034
  C        -3.9717099532       14.6618441527       38.5880501873
  N        -3.7765093386       16.0103416815       38.7061115686
  O        -2.5582200484       17.6261481991       37.6122368312
  S        -4.8061523468       13.8664280054       39.9127446635
  C        -3.8179873884       16.7091949126       39.9507774176
  H        -3.9176613341       17.7814581990       39.7408008937
  H        -4.7072719114       16.4477103712       40.6267717466
  C        -2.4923009102       16.5269753253       40.7718655917
  H        -2.0492802186       15.5862648804       40.5898762102
  H        -1.8761989767       17.3609781655       40.4863554950
  H        -2.6336273423       16.5306742660       41.8616529943
