352
 i =    58400, time =    58400.000, E =        24.7293400092
  H        10.2127369416        4.7344719782       31.1505081770
  C        10.7361160679        5.5781153921       31.6857153241
  H        10.0430597702        6.2956362613       32.1952461722
  C        11.7424784097        6.2348827796       30.7377547055
  C        11.4215401521        4.9198293458       32.8965279737
  C        11.6446029053        5.7388587547       29.3046328344
  H        11.5017138952        7.3018177299       30.8762392043
  H        12.8020659248        6.1597675577       31.1126654741
  H        12.4212363836        4.6310545518       32.6601776459
  H        11.5667511086        5.7035476225       33.6224643969
  H        10.8254558214        4.0830208135       33.2537543973
  C        10.4028682681        6.0244512761       28.5781467605
  H        11.7541788509        4.6514420880       29.2084756130
  H        12.4730241635        6.1702622313       28.7722890758
  C        10.4946612769        5.4846731544       27.1506193086
  H         9.5355919046        5.5527923771       29.0421621619
  H        10.1973565610        7.0865250511       28.5117476745
  C         9.3587480555        4.6608194640       26.5568386742
  H        11.3890099116        4.9069077946       26.9823860585
  H        10.7557862319        6.3604507309       26.5039361231
  C         8.2245868653        5.5427027711       26.0661433986
  H         9.7367100737        3.8866090108       25.8622503018
  H         9.0256952752        4.0690680399       27.4239324231
  C         7.1356017319        4.7625612492       25.2879673676
  H         7.7572844862        5.9499593309       26.9835225341
  H         8.6818825068        6.3937689335       25.5750386792
  C         6.9321818312        3.3847073790       25.9470134242
  C         7.6564615027        4.0564425590       24.1115737641
  C         5.8750634304        5.4867106705       24.7237418649
  C         7.2748013548        2.2750213451       25.1869252048
  C         6.4484860103        2.9680766200       27.1765913562
  C         7.7448973259        2.7248762051       23.9346426904
  C         8.0251872912        4.8621582819       22.9672794346
  H         5.4099107908        4.9361773554       23.8458031086
  H         6.1946721133        6.4999503922       24.4427780094
  C         4.7150478500        5.5746749294       25.7828367650
  S         6.9864323838        0.7827052915       26.0191132771
  C         6.4623561776        1.6040022388       27.4246587459
  H         6.2534699310        3.7117630757       27.9539702384
  C         8.0828045203        2.2164608153       22.7486514594
  H         8.0392348934        5.9635788023       23.0673886287
  C         8.4389773654        4.2930892066       21.7979654456
  H         4.7613385101        4.6611988286       26.4777560813
  H         4.9417524549        6.4234458488       26.3972654812
  C         3.3487681157        5.8673430688       25.1252603682
  C         5.9484814876        1.0703130899       28.6993235087
  C         8.4685770371        2.9470931239       21.6349743911
  H         7.9805934336        1.1538780340       22.6415491138
  C         8.9419151934        4.7152146929       20.5624867023
  H         2.8753147059        4.9533360396       24.6114902025
  H         3.4196175151        6.6649608620       24.3797424592
  C         2.3339653479        6.2000492680       26.2224065617
  C         5.8855871519       -0.3136142391       28.9648380942
  C         5.5800811705        1.9407290249       29.8642614143
  C         8.9231740901        2.2841614229       20.4069048580
  C         9.2185383596        3.6297480795       19.7366924953
  S         9.1314587567        6.2018212044       19.7962686667
  H         1.5661627491        6.7823715525       25.6810026594
  H         2.5613692685        6.8262857476       27.0516558991
  C         1.5964468273        4.9628205415       26.7787515487
  N         6.1955813066       -1.3158470107       28.0253192547
  C         5.5758458214       -0.9077506807       30.2082364624
  C         5.1438537777        1.3954253855       31.0612953625
  H         5.4706875859        2.9986480373       29.7503101439
  C         7.8965063213        1.4551723574       19.5951948247
  C        10.1182731243        1.3776118237       20.8102745907
  C         9.6779789370        4.0515967341       18.4810001823
  C         9.6174083676        5.4018078715       18.2836817288
  H         0.8354198592        4.6048100067       26.1562035862
  H         2.4027740542        4.2395535996       26.8339270294
  C         0.9649055062        5.1366079851       28.1140629806
  S         6.0535960426       -2.7822407473       28.7798650261
  N         5.7054409811       -2.3244396528       30.2202117319
  C         5.1403729562       -0.0951586278       31.2880023445
  H         4.8661430101        2.0636574442       31.8487397976
  H         7.3301581479        0.7802646839       20.2244491722
  H         8.3563296644        0.7987493951       18.8671853523
  C         6.7555848974        2.3145932650       18.9273105405
  H        10.3330593278        0.7396941339       19.9573054533
  H         9.7570964603        0.6985969827       21.5899837387
  C        11.3880807054        2.1874140828       21.1934189182
  H         9.9290538757        3.2946704746       17.7788574381
  C         9.8939357723        6.2145947185       17.0595493111
  H         0.3235185269        4.2764244792       28.2189165049
  H         0.2865663805        6.0134672403       28.1446011057
  C         2.0011529580        4.9614642397       29.2406184669
  C         4.8274856842       -0.7274473216       32.5401789122
  H         7.1747030414        2.9253642638       18.1271271214
  H         6.4390848112        3.0723440121       19.6855743582
  C         5.5708331411        1.4486448318       18.4055583981
  H        11.2175908604        2.4941122255       22.2090265676
  H        11.6860657961        2.8856407009       20.4684291242
  C        12.6469370812        1.2742454152       21.1580768274
  C        10.0234957693        7.6617129309       16.9773820138
  C        10.1296036374        5.4509330975       15.8125785479
  H         2.3049960156        3.8980455081       29.1439571053
  H         2.8230579550        5.7034611079       29.2424123353
  C         1.2485155514        5.2499811867       30.5735086313
  H         4.7521236591       -1.8061987944       32.5169111760
  C         4.6006753300       -0.2265470932       33.8238053965
  H         5.6429383137        0.5725196703       19.0243125701
  H         5.6561890844        1.0546167088       17.3987580176
  C         4.2431952699        2.2134273866       18.5631698961
  H        12.4683208147        0.5384478405       21.9490346314
  H        12.8507331446        0.7028800489       20.2502586411
  C        13.9622230338        1.9812217309       21.4454562693
  N         9.9131632214        8.6160099513       18.0635407185
  C        10.4201208980        8.2644711992       15.8470898747
  C        10.4873973036        6.1138489878       14.6353505795
  H         9.8663352701        4.4364739196       15.7912671411
  H         0.4278621021        4.5350597979       30.7706632361
  H         1.9673163004        5.1844905211       31.3317889463
  H         0.8946313782        6.2797278547       30.6219941631
  S         4.5637249332        1.4106268416       34.3121187438
  C         4.4819904684       -1.2204053259       34.9119609880
  H         4.2807815011        2.8547453744       19.3996366189
  H         4.0678797889        2.8143616304       17.6432118852
  C         3.0496563296        1.2766063620       18.8396852140
  H        13.8301081926        3.0647687112       21.3060174512
  H        14.5439644438        1.5048397118       20.6671376194
  C        14.5578491664        1.8170749460       22.8402920247
  S         9.9231550294       10.1446278137       17.4482978142
  N        10.3903154097        9.6926074027       15.9872528392
  C        10.6443702435        7.6204240095       14.5965032339
  H        10.7744103172        5.5066786616       13.7592367487
  C         4.1731474274        0.8448463014       35.9300725308
  N         4.2526943860       -0.5337637871       36.0512559650
  O         4.4300864097       -2.4637555565       34.8216840030
  H         2.2734448489        1.8800791782       19.3525150061
  H         3.4501845822        0.5993459277       19.6159473872
  C         2.5440077253        0.5921458453       17.6302002067
  H        13.8816172626        2.4256265442       23.4712200906
  H        14.4985794668        0.8150178687       23.1367961733
  C        15.9448402090        2.5082676732       22.8638862165
  C        10.8850636268        8.4602065264       13.4770415415
  S         4.1157578852        1.8560137492       37.3856441083
  C         4.2858426512       -1.2460048348       37.3677253701
  H         1.9016133202        1.3019185517       16.9463978491
  H         3.3971804233        0.3408624623       17.0015418066
  C         1.7951985986       -0.7383989808       18.0018345618
  H        16.0284806928        2.9028569807       23.9150582775
  H        16.0534877610        3.2415229933       22.0667468765
  C        17.0414594546        1.4129507416       22.6120790775
  H        10.7444707345        9.5079117462       13.5884243553
  C        11.3155387688        8.1600774572       12.1949388380
  H         3.7326986786       -0.7619031178       38.1685897344
  H         3.9050988735       -2.2637678499       37.3402020503
  C         5.7363327149       -1.3437600758       37.8533310513
  H         0.7823966108       -0.6200741936       17.5977425231
  H         1.5924739996       -0.7896580585       19.1136650335
  C         2.6615932140       -1.9137126932       17.5453723336
  H        17.0861967183        0.7274544861       23.5107948223
  H        16.8169694194        0.7998815653       21.7307724066
  C        18.3185360754        2.0285947938       22.3655917215
  S        11.7421740277        6.7011909956       11.4807131830
  C        11.3655900487        9.3216661168       11.2638104155
  H         5.8457732245       -2.2232328736       38.5280794342
  H         6.4820798426       -1.5123289680       37.0229161770
  H         6.0364875531       -0.4813244178       38.4673551305
  H         3.6861156989       -1.8476691610       17.9047732474
  H         2.7022311063       -1.7382015378       16.5461714533
  H         2.2706139675       -2.8629267751       17.8620509115
  H        18.3004396639        2.9475641524       21.8548768772
  H        18.9804899728        1.3228546404       21.8557162289
  H        18.7922076105        2.1962984980       23.3575709812
  C        12.1143804465        7.5669306275       10.0197835497
  N        11.8431793071        8.8626025167       10.0852679469
  O        11.0597699550       10.4968775362       11.5269250017
  S        12.7563400287        6.7865373867        8.5834153637
  C        11.9330420676        9.7289723068        8.9420427853
  H        12.1153585728       10.7547386219        9.1893039457
  H        12.8296985685        9.4471478838        8.3763257968
  C        10.7361089151        9.6274734493        8.0471434662
  H        10.4606838835       10.5961255171        7.5403313538
  H        10.9409837014        9.0760824183        7.1587796403
  H         9.8055024759        9.1795764453        8.4546553253
  H        -4.2866501206       14.0302184779       16.5335940426
  C        -3.4832859051       13.2313557952       16.5618539758
  H        -3.9188301751       12.3578079918       17.0686793577
  C        -2.3803930292       13.6019485680       17.5642894683
  C        -2.9494812194       12.9413554778       15.1382136513
  C        -2.7400776941       13.2029059341       18.9467561665
  H        -1.4759623797       13.2253699517       17.1339802053
  H        -2.2807137368       14.6886869514       17.7542339815
  H        -2.3468724713       13.8570582856       14.8680264874
  H        -2.3095898024       12.0442388060       15.2824758257
  H        -3.7400252099       12.7607831644       14.3465867173
  C        -1.5468353846       13.2333230751       19.8883056457
  H        -3.0645486178       12.1833512495       19.0081947913
  H        -3.6713379354       13.8412399740       19.1622051896
  C        -2.0191268363       13.1824707754       21.3306159168
  H        -0.7817807802       12.4802044674       19.7756855266
  H        -0.9928566768       14.1279013422       19.8512502373
  C        -1.0713596723       12.5475726156       22.3679140212
  H        -2.8872025149       12.5241070056       21.4143443678
  H        -2.3799917645       14.1186600021       21.8404162850
  C         0.2136556229       13.4295033299       22.5782830901
  H        -1.5468962434       12.3706307801       23.3182335750
  H        -0.8180221196       11.6173554804       21.8420265468
  C         1.2735244152       12.6920790011       23.5034340162
  H         0.6582940950       13.6241523296       21.6374112768
  H        -0.0719442728       14.3603615558       23.0196583720
  C         1.6305944843       11.3747932976       22.8443989581
  C         0.7069647852       12.0263087014       24.7306394164
  C         2.5666578588       13.5224545533       23.7405910832
  C         1.3698345673       10.2798684644       23.6158932765
  C         2.0953164883       11.0674854940       21.5783826469
  C         0.7836373525       10.7144022887       24.8397722546
  C         0.2022719880       12.7311518266       25.7725025057
  H         2.7092544182       14.0760336003       22.8079107985
  H         2.4179490330       14.2736803260       24.5632565082
  C         3.8765994475       12.7652152563       24.1779076305
  S         1.9022949554        8.8100739147       22.7956988240
  C         2.3211787420        9.7696071640       21.3938469893
  H         2.2462235375       11.8822882457       20.8513617873
  C         0.3062774015       10.1478849392       25.9619921730
  H         0.1372742124       13.7812499909       25.5799685197
  C        -0.2527765470       12.1913196933       26.9376412120
  H         4.0851922200       11.8960358193       23.5534842652
  H         3.6957754705       12.2041773434       25.1002285399
  C         5.0936350136       13.6716303298       24.3454510424
  C         2.5955007749        9.1814635571       20.0947161949
  C        -0.2220301583       10.8522427662       27.0491652745
  H         0.3215862307        9.0496800265       26.0185538353
  C        -0.7519833341       12.5330263012       28.1615113123
  H         5.7546675264       12.9784390538       24.8121159733
  H         4.7940654509       14.5136594937       24.9207751540
  C         5.5977155876       14.1108525231       23.0177294699
  C         2.4498461356        7.7629336797       19.7552383417
  C         2.9508828551       10.0362083441       18.9352540905
  C        -0.7956493191       10.0287920552       28.2021067642
  C        -1.0849108740       11.3905850633       28.9249535693
  S        -1.0392249342       13.9927134872       28.9660137796
  H         6.3937880874       14.7626518958       23.2029283367
  H         4.8059607446       14.5965356844       22.4125689875
  C         6.1992700707       12.9543777600       22.1547925473
  N         2.0803348901        6.6958554066       20.5737023161
  C         2.9025973360        7.2661722670       18.5298612087
  C         3.2010515246        9.5949014478       17.6331499962
  H         3.0394743606       11.0808256248       19.0546509771
  C         0.2005484668        9.1437978684       28.9805616569
  C        -2.0468033884        9.1880549529       27.7431318057
  C        -1.5275868665       11.7471287113       30.2245758595
  C        -1.5787535511       13.1257316737       30.3724386270
  H         6.9662276882       12.4859194282       22.7384129303
  H         5.3914249829       12.2353172218       21.8501187559
  C         6.8729198685       13.4072085698       20.9002534817
  S         2.1828061503        5.2983372315       19.7712169454
  N         2.8072545836        5.8785244745       18.4095599363
  C         3.1922524774        8.1161810544       17.4139091058
  H         3.3319802274       10.2986119958       16.8555951510
  H         0.5028182286        8.3373085362       28.3412802968
  H        -0.3411634138        8.8074062794       29.8469506692
  C         1.4552279552        9.8268655918       29.5531705164
  H        -1.8051488576        8.4532683118       26.9067700399
  H        -2.4300009524        8.6201896988       28.5601356543
  C        -3.1788424438       10.0922898777       27.3030235883
  H        -1.8739894766       11.0082867412       30.8833511111
  C        -1.9359996743       13.8202513899       31.6886008359
  H         7.7640276369       12.9169957867       20.7315589599
  H         7.0934060252       14.4720712494       21.1199701096
  C         5.8687211507       13.3657069648       19.7626285338
  C         3.3770302756        7.5034991006       16.1439349948
  H         1.9650863662       10.4282433189       28.8601884302
  H         1.0703198398       10.5445117634       30.2807442895
  C         2.4179305505        8.7531574996       30.1317108571
  H        -2.9335394195       10.7522620306       26.4593016448
  H        -3.5215013030       10.7241671814       28.1579846892
  C        -4.3172450977        9.2490628441       26.7979936438
  C        -2.0610145077       15.2530502780       31.8465679694
  C        -2.0140815131       13.0579047492       32.9550305636
  H         5.2645268786       12.4637065030       19.5656199644
  H         5.1298777805       14.1532617579       19.7785717812
  C         6.6262025924       13.5364455521       18.4394814904
  H         3.1653691561        6.4338593396       16.0803063293
  C         3.7298795750        7.9152480185       14.8353432757
  H         2.7579861279        8.0125454162       29.3503831718
  H         1.9860224754        8.1157452382       30.8504952754
  C         3.7193603401        9.3186967795       30.7154225219
  H        -3.9643601875        8.4842637703       26.1475961165
  H        -4.6773710562        8.7805865901       27.7017540577
  C        -5.3185647031       10.0302392560       25.9924787897
  N        -1.8715100678       16.2465183538       30.8650919222
  C        -2.3545607995       15.7824913626       33.1169277594
  C        -2.1353841277       13.5852113348       34.1793811419
  H        -1.8082184120       11.9887807683       32.8393954749
  H         7.6323082672       13.7825739999       18.5403782504
  H         6.5428456803       12.6220691266       17.8601492627
  H         6.1421334246       14.3484411319       17.8082828058
  S         4.0788613560        9.4850754182       14.2672045155
  C         3.8310353058        6.8634357265       13.7565084805
  H         3.9594641685       10.3342099975       30.3528535708
  H         3.3192302203        9.4661737059       31.7414697579
  C         4.9722707943        8.4735628350       30.8059192033
  H        -5.2309961318        9.7793084321       24.9526871801
  H        -5.1401101599       11.1043022921       26.0030471719
  C        -6.8172349707        9.8392109916       26.4071188196
  S        -1.7010122718       17.6646518289       31.7113147777
  N        -2.2586569162       17.1465040901       33.1728549257
  C        -2.4689825028       15.0488718209       34.2784603934
  H        -2.0755433791       12.9276023338       34.9681812687
  C         4.1757453893        8.7323766845       12.6514374039
  N         4.2023773335        7.3906884087       12.6491118449
  O         3.7337886532        5.6750762669       14.0097289931
  H         5.6869914317        9.0495620227       31.2316758150
  H         5.2463807408        8.3983255815       29.8037403708
  C         4.9331726449        7.1157449416       31.4308706217
  H        -7.0153411831        8.7744063526       26.4320285463
  H        -6.8807545363       10.2559023387       27.3542009402
  C        -7.8601761831       10.4428435086       25.4366929022
  C        -2.6597097594       15.7128913282       35.5313840453
  S         4.3996132452        9.5976146604       11.1221936684
  C         4.1462138506        6.7090444919       11.3472245450
  H         4.7862338328        7.3427453403       32.5051342495
  H         4.0181037920        6.6419918992       31.0898624765
  C         6.1349035667        6.2805973629       31.1593016875
  H        -7.4435289704       10.9253752497       24.5885032222
  H        -8.2631047805       11.2228069218       26.0167385738
  C        -9.0908773915        9.6374386773       24.9617502439
  H        -2.3614292945       16.7509787870       35.4877916591
  C        -3.1682700151       15.3319787153       36.7370080222
  H         4.8229948209        7.1227938184       10.6077440352
  H         4.3678186994        5.6522613495       11.4780393651
  C         2.7550596219        6.6090671351       10.6863447082
  H         6.0831784326        5.3871665039       31.8776423022
  H         7.1316706623        6.8092279500       31.2819437821
  C         6.1931782594        5.8985700934       29.7557515876
  H        -9.5830509750       10.1350288464       24.1358266928
  H        -8.6926230193        8.6915659375       24.5501178918
  C       -10.0596405928        9.4247333518       26.0699780870
  S        -3.5430265521       13.7557353958       37.2911201728
  C        -3.3499819541       16.4218245909       37.7104623128
  H         2.0325330696        6.4366124043       11.4737222149
  H         2.4434303933        7.5221854861       10.2179759454
  H         2.7862909963        5.8485241252        9.9950472407
  H         5.1703521856        5.5225515150       29.5843279829
  H         6.9033168984        5.0779765084       29.5874274287
  H         6.5552115827        6.6498554333       29.0649619468
  H       -10.9358908082        8.8901089192       25.8013070934
  H       -10.4704611462       10.3683993514       26.4861567926
  H        -9.5006827011        8.8664486299       26.8124608225
  C        -4.0668363470       14.5613589628       38.7450487438
  N        -3.9571609248       15.9716928942       38.7861961187
  O        -2.9569666001       17.5892968248       37.4487025509
  S        -4.7891665412       13.7699612879       40.0584759878
  C        -4.2616228941       16.7507278177       39.9896954551
  H        -4.3701721995       17.7711355365       39.6185235051
  H        -5.2268941169       16.5182655808       40.4399168171
  C        -3.1062538077       16.5991015284       40.9426315558
  H        -2.1089879455       16.5335746950       40.4583663721
  H        -3.2705534473       17.4541574043       41.5165648299
  H        -3.1158997328       15.7141355453       41.5728267991
