352
 i =    67600, time =    67600.000, E =        25.1733725965
  H        10.0448780754        4.8455950479       30.9435410859
  C        10.3748875976        5.7977877025       31.3275897952
  H         9.4263080360        6.3204721205       31.4136061777
  C        11.2599050439        6.6753499988       30.3679744809
  C        10.9999943749        5.6076446820       32.7320393045
  C        12.1384656460        5.8217160738       29.4953723904
  H        10.6278937806        7.2890897467       29.7018637126
  H        11.8444809049        7.3413418138       31.0925939275
  H        10.2776247747        5.0546366585       33.3306490363
  H        11.8587958890        4.9243149436       32.6516247423
  H        11.2885221604        6.5521300451       33.2013897174
  C        11.4891786987        4.9331679151       28.4612472915
  H        12.7017804584        5.2247173585       30.2044351429
  H        12.8056295632        6.4268806305       28.9320856878
  C        10.7297041563        5.6299867518       27.3375761088
  H        12.1457042045        4.2866073310       27.9668469977
  H        10.7049421281        4.3769886058       29.0082786571
  C         9.3151413898        5.0964458536       27.2827492307
  H        11.1670908626        5.3850820293       26.3407099766
  H        10.7235290993        6.6608304148       27.5137238545
  C         8.3715387625        5.8130865416       26.3183287297
  H         9.3527326392        3.9897444263       26.9992703772
  H         8.7924174965        5.1088001374       28.2432883725
  C         7.4378657422        4.9940267283       25.3970390201
  H         7.8657159925        6.4694033999       26.9431618188
  H         8.8770020798        6.4613342770       25.5699888144
  C         7.0597749476        3.6985340393       26.0539574101
  C         7.9852406540        4.3556936249       24.2504904113
  C         6.1961053954        5.7613973009       24.8536337754
  C         7.4314557602        2.5934087341       25.2928692396
  C         6.4561889539        3.3756802077       27.2987705553
  C         7.9430879446        3.0537164328       24.0904455054
  C         8.3814051072        5.0499334151       23.0776134106
  H         5.8506880912        5.0369126321       24.1677114605
  H         6.5319881420        6.6264032482       24.2504011608
  C         4.9918545082        6.0835207369       25.8041570895
  S         7.0170448799        1.0602360209       26.1046708202
  C         6.4119303155        2.0003115194       27.4450068892
  H         6.1338390047        4.1169560499       27.9742623297
  C         8.2936270025        2.4302264548       22.9262841475
  H         8.3630183649        6.0824162826       23.0518152487
  C         8.7681838132        4.4362395520       21.8998353174
  H         4.8962120880        5.1210851338       26.3840484537
  H         5.2671653474        6.8463303151       26.4849435391
  C         3.6635266195        6.4252863298       25.1066195210
  C         5.8803064270        1.3240567542       28.7032953758
  C         8.7142851186        3.0826495299       21.8009589668
  H         8.2074973090        1.3261044352       22.8473207934
  C         9.0845995917        4.8387885024       20.6062581538
  H         3.3830312020        5.6286522326       24.3106030408
  H         3.7261926691        7.2347622443       24.3535102181
  C         2.4920751878        6.4719052763       26.0173548918
  C         5.8680759716       -0.0191570288       28.9315680297
  C         5.3173275688        2.1701592703       29.7095174249
  C         9.1254933180        2.4199777742       20.5171409213
  C         9.3734236083        3.7452614073       19.8234032250
  S         9.3442304163        6.3773604627       19.8730357967
  H         1.7195348877        7.1951554498       25.5730622362
  H         2.7881294847        7.0432381683       26.8571165447
  C         1.8942864042        5.0860922518       26.5795052478
  N         6.3849586223       -0.9740408828       28.0778111475
  C         5.5251927792       -0.5147796540       30.1636238883
  C         5.0670922588        1.7062042340       31.0014597779
  H         5.0234405163        3.1439719925       29.5289047208
  C         7.9449494947        1.6790743119       19.8752845370
  C        10.4561918180        1.5239827621       20.6313465580
  C         9.7796665097        4.1250736910       18.5363361542
  C         9.7711597386        5.4681702852       18.4609561191
  H         1.0721186664        4.7882187936       25.9615070606
  H         2.4839386946        4.2500420105       26.5279648989
  C         1.3025807134        5.1837814280       28.0356844965
  S         6.1580395025       -2.4157499283       28.7890636363
  N         5.7677318016       -1.8984284343       30.2705663935
  C         5.1891833840        0.2967692372       31.2959765349
  H         4.8620927618        2.3387531288       31.8074251928
  H         7.7006075430        0.8229369590       20.4426041738
  H         8.3541710099        1.2530923746       18.9526970410
  C         6.7645037489        2.6121574752       19.5106853472
  H        10.7818200386        1.0707827619       19.6988336699
  H        10.1712918541        0.7310631222       21.3104664245
  C        11.7269861919        2.2518220531       20.9938374325
  H        10.0110084796        3.3733043447       17.8867136728
  C        10.1759909161        6.2330532565       17.1958997283
  H         0.7510919559        4.2468742746       28.1369063487
  H         0.7359458033        6.0574889472       28.1276924929
  C         2.4136625965        5.3553283362       29.0105265312
  C         5.0673671062       -0.2439011443       32.6456921232
  H         7.0207270706        3.2263515635       18.6451446992
  H         6.6096813645        3.3091199588       20.2938427241
  C         5.3895020494        1.9814874359       19.2537191897
  H        11.5535952649        2.8019158920       21.8896098711
  H        12.0962054542        2.9408228263       20.2654103785
  C        12.9554404188        1.3546955625       21.2066908066
  C        10.1910504295        7.6915558807       17.0068835881
  C        10.5833636051        5.4991385010       15.9548748680
  H         2.9978061058        4.4817614241       29.1297562739
  H         3.1053394108        6.2416350246       28.9602920540
  C         1.8151041966        5.3773481294       30.4488437068
  H         5.3755518225       -1.2260318975       32.6712330218
  C         4.7186091690        0.3180894803       33.8756688941
  H         4.6579942788        2.7565097244       19.3975749609
  H         5.0957411152        1.3033857675       20.0240748417
  C         5.3477036623        1.2298057498       17.8765495608
  H        12.5636082194        0.4154864581       21.6256660730
  H        13.3565282070        1.1197749822       20.2121228858
  C        13.8702907996        2.0119801166       22.1943142863
  N         9.6872236779        8.5573695388       17.9133070313
  C        10.4425069890        8.3623356690       15.7954157308
  C        10.8979588671        6.1651597030       14.7598021411
  H        10.5101876755        4.4329731374       15.9368179695
  H         0.8658469472        4.8680090384       30.3848025847
  H         2.4518789863        4.7945516125       31.1545506777
  H         1.7522632787        6.3082522206       30.9715776781
  S         4.1629065051        1.9193344672       34.2612680688
  C         4.8341569545       -0.6024672138       35.0670506157
  H         5.8605274546        1.7875751742       17.1227987242
  H         5.8575603498        0.2772405937       17.9587235491
  C         3.9586195835        0.9241003077       17.3463832557
  H        13.3152065568        2.1273819171       23.1341111574
  H        14.0822036697        3.0216931310       21.7844066661
  C        15.1535693767        1.2722137676       22.5235808669
  S         9.7048898707       10.0938551419       17.3402249309
  N        10.2855576548        9.7756426882       15.8940640348
  C        10.8645811643        7.6658417335       14.6679608857
  H        11.2638230565        5.6228573600       13.9597193517
  C         4.1694519724        1.3550395836       36.0140648108
  N         4.4317671597        0.0641793728       36.2276994471
  O         5.1236966144       -1.8018851856       35.0089921182
  H         4.0580396926        0.6721170866       16.3117913041
  H         3.4482389094        1.9000610729       17.3721499702
  C         3.2124340480       -0.0385348192       18.3104365727
  H        15.0142932753        0.7375730892       23.4410374453
  H        15.4117565130        0.4780352507       21.8485198463
  C        16.2398495350        2.3845241786       22.6121415526
  C        11.2059738839        8.5234816840       13.5213972634
  S         3.9948405162        2.4300215491       37.3982380122
  C         4.6271394085       -0.5746178906       37.6017838103
  H         3.6810395266        0.1161956787       19.3020838217
  H         2.1510758827        0.2867614670       18.4244696265
  C         3.4078935550       -1.5287838597       17.9231723518
  H        15.8222622337        3.2793056434       22.9965793590
  H        16.5136682760        2.8146230760       21.6949889514
  C        17.4097879215        1.9618620931       23.4961915317
  H        11.1644842391        9.5867914755       13.6172663423
  C        11.5892727518        8.2391939735       12.2526344872
  H         3.9128380497       -0.1678372270       38.2207668442
  H         4.2702981268       -1.6258524591       37.5860011412
  C         6.1197759416       -0.4819601222       38.0733348846
  H         3.7816887382       -2.0625087938       18.7762663712
  H         4.3058232025       -1.6232671200       17.2313554124
  C         2.1924012042       -2.1984515622       17.2583964045
  H        17.4704132584        2.6662237092       24.2962538710
  H        17.2159856401        1.0085321029       23.8642116240
  C        18.7300784031        1.9270237012       22.7351534647
  S        12.1682858369        6.6810841702       11.7110477905
  C        11.8301159520        9.3108913958       11.2813098768
  H         6.3508067113       -0.9579147073       39.0468512486
  H         6.7396644388       -0.9534012130       37.3146241438
  H         6.3418489708        0.5480241686       38.1008241675
  H         1.6697686153       -2.7058894653       18.0206850315
  H         2.2971452491       -2.8151043553       16.3363790205
  H         1.5102463333       -1.3705511292       16.9600726213
  H        19.2578987012        2.8530354827       22.6545488765
  H        18.4759812336        1.5286018683       21.7056308442
  H        19.3321791896        1.2010160395       23.2570406845
  C        12.4173103068        7.4632120079       10.1297640392
  N        12.3111255637        8.7988138633       10.1383516776
  O        11.5186574296       10.4637002553       11.5029062269
  S        13.0458379869        6.7238221212        8.6670059173
  C        12.3878943392        9.6686727086        8.9866684450
  H        12.6105881867       10.6991305543        9.3470701232
  H        13.2112349078        9.2939428629        8.4074528872
  C        11.0944232945        9.5853418611        8.2571508140
  H        10.8073222640        8.5054296793        8.2344054194
  H        10.3241327273       10.2212530322        8.7541078231
  H        11.1942313093        9.9480260332        7.2612447190
  H        -3.5687944462       14.7038748273       16.2812705566
  C        -3.1947362899       13.7271347933       16.1218179764
  H        -4.1006243622       13.0809860335       16.1817238613
  C        -2.1900314473       13.3774108761       17.2306108569
  C        -2.6434805776       13.4423872483       14.7031093506
  C        -2.8278440312       13.6979026339       18.6311310313
  H        -1.8202363179       12.3530701328       17.1890760919
  H        -1.3204000110       13.9128331922       17.2081502846
  H        -1.7775216117       14.0811492901       14.6508776106
  H        -2.4437429524       12.4872732364       14.3932172918
  H        -3.2667442784       13.8364383134       13.9449249573
  C        -1.7105858586       13.7760468961       19.6671998090
  H        -3.5662910933       13.0945244326       19.0475039386
  H        -3.2821137084       14.6772762885       18.6529168776
  C        -1.9909056738       13.6553524442       21.1207175783
  H        -0.8430577793       13.1649921962       19.3296822297
  H        -1.3839009055       14.8223533488       19.5338096634
  C        -1.0009297653       12.8412444164       21.8793974203
  H        -2.8924181143       13.1214445790       21.1346775575
  H        -2.2518456819       14.6148225301       21.5269837199
  C         0.1731066138       13.6825040915       22.4534820265
  H        -1.5391304343       12.3760048330       22.6798445033
  H        -0.5883953608       12.0325598992       21.3190742059
  C         1.3376362442       13.0483439117       23.3138978368
  H         0.5163908338       14.3335300975       21.6557291142
  H        -0.2767132033       14.3780205342       23.1285118685
  C         1.8043856248       11.6884178327       22.6765756053
  C         0.9144599709       12.1846084013       24.4699011524
  C         2.5045500344       14.0253390968       23.4850104563
  C         1.5469993687       10.5149210160       23.4056873940
  C         2.3036889799       11.3701779218       21.4026293977
  C         0.9881433295       10.8518631982       24.5410742033
  C         0.2342439816       12.7785819697       25.5291114413
  H         2.7725435961       14.2981444995       22.4557175095
  H         2.1511254042       14.9277181719       24.0264138025
  C         3.5708858507       13.3495114123       24.4157608690
  S         1.8325848747        9.0682865388       22.4875948307
  C         2.4702175392       10.0438113621       21.2084625905
  H         2.6314979224       12.1548781077       20.6813439237
  C         0.5159752779       10.2728666103       25.7097033908
  H         0.0444077592       13.8461935512       25.4588655937
  C        -0.1099007603       12.2085552444       26.7512947822
  H         3.9150421482       12.4445056803       24.0223784980
  H         3.1479736051       13.0557412350       25.2850779517
  C         4.7398921027       14.2372282638       24.7539655449
  C         2.7139844721        9.4717285753       19.8055704593
  C         0.0407933311       10.8588045784       26.8846366091
  H         0.3986182027        9.1920677088       25.7197621321
  C        -0.6176729933       12.5790639752       28.0037943249
  H         5.1988445975       13.8595567764       25.6380261398
  H         4.4336859445       15.2712737640       24.9510931668
  C         5.6760294193       14.5554296462       23.5533042547
  C         2.7396018948        8.0802503087       19.5239842430
  C         3.0172814533       10.3791186921       18.6092723040
  C        -0.4172773657       10.0567542236       28.1060934010
  C        -0.8009456093       11.4187057756       28.7777000122
  S        -0.9568001604       14.0555117775       28.8508583343
  H         6.3378261083       15.4369909468       23.8378210230
  H         5.0488678719       14.9309866240       22.7003092627
  C         6.4430882469       13.3057433951       23.1272002834
  N         2.4312315941        7.0776063519       20.4183861012
  C         2.9314352400        7.5362602656       18.2352060587
  C         3.1815220726        9.8430200052       17.3822104879
  H         3.0829710059       11.4299201898       18.7167014602
  C         0.7395032219        9.3431650516       28.7704192380
  C        -1.6212053450        9.2053597385       27.7278910784
  C        -1.1816831360       11.7647452258       30.1151810572
  C        -1.2294734825       13.1353271662       30.3040291489
  H         7.0714324218       12.9737233608       23.9186561152
  H         5.8060259066       12.4128192468       23.0714243341
  C         7.2221471052       13.5225319744       21.8677815849
  S         2.5511638634        5.6156024971       19.6904632235
  N         2.7900351683        6.1963465034       18.2053512273
  C         3.1475928966        8.3595499999       17.1556662181
  H         3.5107189938       10.4563713045       16.5378074015
  H         1.1066917998        8.5799665957       28.1157931413
  H         0.4270100769        8.7275400115       29.6938141140
  C         1.9567123986       10.2586224090       29.0634434415
  H        -1.5538672655        8.8541668366       26.6909703850
  H        -1.5908103469        8.3399170152       28.3936666755
  C        -2.9527896803        9.9412916251       28.0039298158
  H        -1.4006436344       10.9715725241       30.7629565477
  C        -1.5781595460       13.9102126149       31.5728211507
  H         7.9775438004       12.7604631215       21.8323005877
  H         7.8143956025       14.4689317611       21.9142011745
  C         6.4027321199       13.5230453279       20.6007154079
  C         3.2215763341        7.8242646061       15.8557549473
  H         2.4019441047       10.6715452546       28.1501045989
  H         1.5719652777       11.1612109968       29.5940032916
  C         3.0082408379        9.5428873351       29.8885181518
  H        -3.0200268116       10.9136735679       27.5105630789
  H        -3.0607164624       10.1957607880       29.0056362328
  C        -4.1641140390        9.1064844306       27.5140755350
  C        -1.7038981421       15.2885382461       31.6983810473
  C        -1.6252791885       13.1209669922       32.8873224328
  H         5.6881053262       12.7142180602       20.6842327723
  H         5.9548797371       14.5201669679       20.5831007066
  C         7.2413346408       13.2685539542       19.4307436969
  H         2.8476310605        6.8192982678       15.7981172365
  C         3.5645258565        8.3220979272       14.6293015255
  H         3.3444174234        8.5580730769       29.4269454425
  H         2.5825469935        9.3725722114       30.8989979565
  C         4.2846282643       10.3336403683       30.2181682945
  H        -3.7978734667        8.7485155591       26.5547160770
  H        -4.4298241307        8.4226912846       28.3748203210
  C        -5.2945914056        9.9666241143       27.0841873315
  N        -1.5433148396       16.2676635367       30.6479089473
  C        -1.9271161147       15.9303793942       32.9063496505
  C        -1.8602759620       13.7816776815       34.1051799897
  H        -1.4397538499       12.0720000880       32.8506009841
  H         7.7082313804       12.2957377262       19.5766287675
  H         6.7710710440       13.1180234876       18.4363169461
  H         7.9974028547       14.1064425481       19.3898516701
  S         4.0431220467        9.8967993629       14.2052035299
  C         3.7307545861        7.3569723094       13.5749265903
  H         4.5652438008       10.8887451859       29.3146023232
  H         4.1443751999       11.2607710658       30.8363046184
  C         5.4406010315        9.4253533162       30.5699973504
  H        -4.8319033931       10.7956627306       26.5009401746
  H        -5.8137613055       10.4315776258       27.9540812844
  C        -6.3154222071        9.3321271829       26.2076289408
  S        -1.3394080708       17.7230142664       31.3294295701
  N        -1.9246096798       17.3158978039       32.7865211496
  C        -2.0917656319       15.2320028017       34.1178714852
  H        -1.8211575745       13.1886762770       35.0063081925
  C         4.2469744964        9.3228481569       12.6534880735
  N         4.2983186156        7.9582263762       12.5111578780
  O         3.5872795578        6.1635013065       13.6735802950
  H         6.2827340349       10.0090460881       30.7482726211
  H         5.7575967399        8.9020042878       29.6473903760
  C         5.2230834018        8.4049392677       31.7267339804
  H        -5.7695674858        8.8439107472       25.3891734038
  H        -6.9376939262        8.5990798760       26.7357617994
  C        -7.0953759018       10.4796940599       25.5492819010
  C        -2.2983550210       15.9905707200       35.2894217495
  S         4.8770917166       10.1235601148       11.2440419713
  C         4.5437428980        7.1625530344       11.3246863361
  H         5.2804327186        8.9552232883       32.6912309388
  H         4.1532496307        8.0499571237       31.6933518687
  C         6.2634577822        7.2075062976       31.5691081862
  H        -6.5901487682       10.6834574599       24.5797729384
  H        -7.1979412861       11.3887234867       26.1210657949
  C        -8.5310299727       10.0866909996       25.1854507079
  H        -1.9237979486       16.9415828751       35.3325178774
  C        -2.7874281077       15.6704581593       36.5642866835
  H         5.3875354180        7.5162928244       10.7421355455
  H         4.7049223600        6.0946898972       11.6760426365
  C         3.2447630376        7.1593905875       10.4570958714
  H         6.5755689276        6.8212427053       32.5236556847
  H         7.2056821615        7.5910494539       31.3573036248
  C         5.8169786579        6.1050140163       30.6461295564
  H        -8.7896276542       10.6636727322       24.3279074037
  H        -8.4610346001        9.0293697010       24.7593007397
  C        -9.6073707339       10.4084475963       26.2681962251
  S        -3.2930271211       14.1254011370       37.0568858563
  C        -2.8893572761       16.7944889521       37.5503168631
  H         2.3831062937        6.8244025764       11.0809145810
  H         2.9977564115        8.1301111239        9.9397087753
  H         3.3923676200        6.5139776740        9.5965790388
  H         6.6937601341        5.6126002622       30.1032258542
  H         5.0412627166        6.4203777695       29.9483337716
  H         5.4198745048        5.2989400166       31.2687858849
  H       -10.5158749250       10.6687253095       25.8025101519
  H        -9.3277455935       11.2842216787       26.8597599434
  H        -9.8074365777        9.6160335667       26.9274460677
  C        -3.4913410255       14.7963518897       38.5735179113
  N        -3.3518787453       16.1597460558       38.6721118212
  O        -2.5726488181       17.9836960305       37.3657794076
  S        -4.1662364709       13.8838541058       39.9622528310
  C        -3.6881524529       16.9917991684       39.8715200471
  H        -3.8822159435       18.0185330509       39.5144898667
  H        -4.6255112920       16.7183033904       40.3527131057
  C        -2.5376711153       16.9771351120       40.8717444946
  H        -2.8289155420       17.2264415360       41.8239983149
  H        -2.2417189755       15.9572496682       40.9191521367
  H        -1.7450485813       17.6935521170       40.5851003056
