352
 i =    76300, time =    76300.000, E =        25.3322722401
  H         9.3888923550        6.4936434543       31.6184329671
  C        10.4107181674        6.5701871285       32.1337348418
  H        10.2779272010        7.5406161038       32.5910032126
  C        11.5676921975        6.7933440759       31.0913052881
  C        10.8700600374        5.6390544223       33.2060413634
  C        11.6016687611        5.7410683239       30.0274026646
  H        11.4567230233        7.7696188228       30.7003334050
  H        12.5127212562        6.6383598446       31.6081088391
  H        10.1978357312        5.5470671118       34.0325804119
  H        10.9562133211        4.6302334131       32.8938432927
  H        11.7945449989        6.0218257702       33.5905593482
  C        10.3862372160        5.6904582581       29.0945688632
  H        11.7940979643        4.7915268865       30.4260486237
  H        12.3425076290        5.9801829192       29.3087633660
  C        10.6809602837        5.4288517409       27.6345672886
  H         9.7068140872        4.9477906199       29.5776522894
  H         9.8547520223        6.5661255665       29.2385615687
  C         9.6171649700        4.7672238575       26.8232062780
  H        11.5987481071        4.8141469701       27.5140017960
  H        10.9705303944        6.4193845565       27.2132799168
  C         8.3499877457        5.6269632482       26.6835375044
  H        10.0126835723        4.5202824834       25.8259425993
  H         9.3247187387        3.8902785714       27.4390932048
  C         7.2714021498        5.0946548277       25.8270238065
  H         7.9232999552        5.8445821312       27.6963893942
  H         8.6020918092        6.6305969487       26.3317880218
  C         6.7934197357        3.7003371236       26.3673180295
  C         7.6917869682        4.4585910087       24.5175313416
  C         6.1457027659        6.0943815414       25.5888862071
  C         7.0627079549        2.7018195413       25.4517942309
  C         6.3710906888        3.2628318869       27.6034077047
  C         7.5456016625        3.1584641916       24.2908093513
  C         8.1882391156        5.1496030206       23.4054100893
  H         5.8031554686        5.9883267497       24.5174175220
  H         6.6167504932        7.0217772379       25.6124092960
  C         4.9262293744        6.0329578275       26.5500918432
  S         6.6152173440        1.1166239888       26.1261021646
  C         6.2645462713        1.9110447644       27.6815672111
  H         6.3645631183        4.0126412892       28.3631730610
  C         8.0366037886        2.5663806428       23.1274687907
  H         8.3597053199        6.1831556052       23.5514432826
  C         8.5645915892        4.5519397826       22.1827130487
  H         5.0867199274        5.9974133385       27.6373501142
  H         4.4062726541        7.0538671574       26.3908222330
  C         3.7844483979        5.0229496805       26.2869172959
  C         5.7583917596        1.1569988085       28.9066937230
  C         8.5354308538        3.2458885520       22.0590538271
  H         7.8847023434        1.4813692424       23.0829551642
  C         9.0250176407        4.9087940938       20.9236918320
  H         4.1591242232        4.0670938389       26.5607728422
  H         3.6007620883        4.8307092633       25.2025301916
  C         2.5030246710        5.3930007229       26.9544158976
  C         5.6973134643       -0.2359554983       29.1736585953
  C         5.4335815103        2.0108704832       30.0682697468
  C         8.8841895323        2.4765364123       20.8548890152
  C         9.1950187078        3.8082911907       20.1199630364
  S         9.2383029065        6.3894864360       20.0407509087
  H         1.6959383603        5.2606643516       26.2786797612
  H         2.5345641662        6.4478522453       27.1848803689
  C         2.2238873915        4.7313219462       28.2659772134
  N         5.9444449944       -1.1884471278       28.1752799688
  C         5.3829814911       -0.7459115698       30.4546367108
  C         5.0491747411        1.5506784381       31.3163594915
  H         5.6068848053        3.0802902432       29.9979493766
  C         7.6127558818        1.6203421442       20.2618696277
  C        10.1719060585        1.6397294593       20.9515797199
  C         9.5407810716        4.1453067746       18.8275314024
  C         9.5675390495        5.4740554057       18.6089250118
  H         1.3570267597        4.1181137071       28.0838432463
  H         2.9743665850        4.0113442648       28.5179250131
  C         2.0620895802        5.6520555807       29.4873790225
  S         5.9687564934       -2.6334769386       28.9279458410
  N         5.5707209254       -2.1578838411       30.4355021765
  C         5.1203503680        0.0650830001       31.5894055013
  H         4.7501426542        2.3074437789       32.0467099685
  H         7.3181344752        0.7891550836       20.8932257885
  H         7.7548759609        1.2353675091       19.2665426794
  C         6.3210297938        2.5265801909       20.2694192608
  H        10.3699801479        1.3403830937       19.8942534329
  H         9.9156358638        0.6707902731       21.3925520080
  C        11.3744879969        2.3735796064       21.6289212591
  H         9.6234941989        3.2811213021       18.2108020237
  C         9.9508686094        6.1871592564       17.3100506393
  H         1.3576712448        6.4500568170       29.2103127067
  H         2.9924364040        6.1942203793       29.6633147701
  C         1.6819892344        4.9018253325       30.7428635653
  C         5.0346299707       -0.5675000114       32.8901131299
  H         6.6625628146        3.5190463520       19.9435934802
  H         5.9581781460        2.8609461417       21.2797110035
  C         5.1157108364        1.9396979758       19.4904554770
  H        11.1097166349        2.7814173883       22.5776893242
  H        11.6961708671        3.1539525961       21.0097977000
  C        12.6310204951        1.5029548980       21.7945016139
  C        10.1090790158        7.5481145912       17.1214801822
  C        10.2679797702        5.3842788987       16.0390499297
  H         1.1623552650        5.6012729256       31.3488204959
  H         0.9444982133        4.1694006792       30.5303762929
  C         2.7618195042        4.1867390129       31.5403330846
  H         4.9811736221       -1.6975140004       32.8188319877
  C         4.8517400390        0.0136747209       34.1437491344
  H         4.2686917218        2.6872593046       19.5213085471
  H         4.7268216483        1.1580024845       20.1425271458
  C         5.4817386964        1.1530868158       18.2044001297
  H        12.5416572337        0.6577675554       22.4770023383
  H        12.9657441766        0.9998527917       20.8680426767
  C        13.7489928471        2.3790309524       22.3159980410
  N         9.7376657014        8.4772684050       18.1166575028
  C        10.4235276626        8.1336435279       15.8677313859
  C        10.4925596646        5.9529406710       14.7854749327
  H        10.0790353178        4.3146266618       16.1678308352
  H         2.9790389980        4.8217693808       32.3873637735
  H         2.2761598112        3.2678838150       32.0288494752
  H         3.5936617610        3.9689721741       30.8493353289
  S         4.4640434520        1.6624523302       34.4980816014
  C         4.7584555453       -0.9407246979       35.2758346209
  H         6.2788780858        1.7474110515       17.6483570991
  H         5.8389261652        0.1625042278       18.4124068861
  C         4.3061433895        1.1422073877       17.2502963847
  H        13.4370488958        3.0967260052       23.0438286978
  H        14.2311471392        2.8924009155       21.4756252522
  C        14.8211519540        1.5310207019       22.9496167273
  S         9.8694885070        9.9346047006       17.4004733881
  N        10.4572322379        9.5373459629       15.9793391699
  C        10.6751684859        7.4238748574       14.6538688716
  H        10.7063642997        5.3943858446       13.8674596301
  C         4.2998348100        1.1234239283       36.1347495826
  N         4.3989448859       -0.1815423839       36.3640601886
  O         4.8037523658       -2.1313691395       35.1827764314
  H         4.4962678598        0.5027906640       16.4245341874
  H         4.3324483776        2.1187410598       16.8113603942
  C         2.9237638717        0.8440749616       17.8513016762
  H        14.4048880547        0.9836962527       23.8331981819
  H        15.2595906686        0.8407314245       22.2329113723
  C        15.9721032967        2.3877682407       23.4178806907
  C        11.0012231967        8.1162850864       13.4436302754
  S         3.7104926841        2.1590438320       37.5178626880
  C         4.2862153639       -0.8672099301       37.6658608544
  H         2.8030977070        0.7138359439       18.9301317919
  H         2.2858100833        1.7806658910       17.6340490776
  C         2.1531177761       -0.3227718478       17.2431724740
  H        15.8016387785        3.1252623253       24.1683250816
  H        16.0986086216        3.0771985760       22.5071602385
  C        17.2994273324        1.6714851648       23.7091929944
  H        10.6188909121        9.1251250929       13.4529846591
  C        11.5442393270        7.7295552206       12.2477065794
  H         3.6816105364       -0.2384725840       38.3436400437
  H         3.8517470908       -1.8544504939       37.5457751084
  C         5.6653459751       -1.0017286585       38.3199470865
  H         2.0906860470       -0.1516595974       16.1620228438
  H         1.1102542758       -0.2080444173       17.4684885725
  C         2.5598446907       -1.7044867806       17.7425781982
  H        17.6769912944        1.9789203934       24.6730334913
  H        17.0965692227        0.5822147050       23.6317906177
  C        18.3345882984        1.9924640076       22.6272264955
  S        12.0951812728        6.1380658826       11.7654748212
  C        11.6547828650        8.8116574317       11.2145425644
  H         5.9648389450       -2.0412020190       38.3046176689
  H         6.3341096479       -0.5893934280       37.5764270505
  H         5.8835162237       -0.5467930680       39.3421061988
  H         3.5321702512       -1.8641193815       17.3037785775
  H         1.8636076551       -2.4660230780       17.4642206836
  H         2.7058920839       -1.6369252464       18.8427850666
  H        19.2359154678        1.3866033792       22.7003209936
  H        18.5044276641        3.0599807375       22.6865034593
  H        17.9067139967        1.7798617126       21.6193692695
  C        12.4756019584        6.9287466943       10.1650677280
  N        12.1983288587        8.2930575608       10.1071888906
  O        11.1892072937        9.9478911801       11.3612097467
  S        13.5065409296        6.1480651573        9.0130713691
  C        12.3771551841        9.0692376375        8.8892418698
  H        12.4963419744       10.1203749719        9.2092865659
  H        13.3310579497        8.7026603239        8.5009027984
  C        11.1535822872        8.7626958500        7.9842548948
  H        11.0700072587        9.6982661654        7.4316431358
  H        11.4539987624        7.8702555948        7.3425630284
  H        10.1971409382        8.6661247831        8.5450562307
  H        -3.3265413037       14.8369880521       16.2955054782
  C        -3.2533713787       13.7798393921       16.3597962611
  H        -4.2419210118       13.4480159606       16.6295391200
  C        -2.2057159363       13.4415931098       17.3795627767
  C        -2.8571787954       13.2417626193       14.9788386565
  C        -2.7693650472       13.3777891422       18.7516613899
  H        -1.8038787257       12.4343762001       17.1277814079
  H        -1.4035146466       14.1779048905       17.3127528236
  H        -2.8048815070       12.1997689531       15.0022582345
  H        -3.5705583209       13.4742230095       14.2024622510
  H        -1.8944920154       13.6877069374       14.6318270687
  C        -1.7788492661       12.8350607492       19.7313189179
  H        -3.7254297853       12.8452999134       18.6999116339
  H        -3.0722266386       14.4191021196       19.0189459419
  C        -2.2132146663       13.2622167706       21.1131813962
  H        -1.7888152355       11.7566635366       19.6074481570
  H        -0.7935423290       13.1315296313       19.3991978124
  C        -1.3909057583       12.6424657838       22.1952185957
  H        -3.2874497835       12.8701769871       21.2756809600
  H        -2.2550684867       14.3600263434       21.1349887128
  C        -0.3447663634       13.6720611444       22.7228384259
  H        -1.8582046837       12.0860797520       23.0000674710
  H        -0.9943949216       11.7327566627       21.7334902625
  C         0.8158332691       12.9879992697       23.4625813940
  H         0.2269712566       14.1825325398       21.9376942693
  H        -0.7834164161       14.4154875419       23.3595118056
  C         1.3223678298       11.7327080369       22.7550590516
  C         0.4490278894       12.1966903465       24.6513529943
  C         1.8168567782       14.0437369829       23.7611654742
  C         1.1734317146       10.6022827694       23.5382800913
  C         1.9535544425       11.3790902721       21.5268137104
  C         0.5506059495       10.8707591502       24.7543501319
  C        -0.0867960817       12.8598839366       25.7579005798
  H         1.9386890444       14.6110924003       22.8251127615
  H         1.4464762342       14.7235371698       24.4707903805
  C         3.0651275524       13.3966316231       24.1280592930
  S         1.7154924889        9.1502226704       22.7538640409
  C         2.0659522027        9.9938128143       21.3560843429
  H         2.1339387180       12.2207628196       20.8296556029
  C         0.2351692386       10.1825115314       25.8940101809
  H        -0.0961627498       13.9334560058       25.7981590884
  C        -0.3996588561       12.1551536696       26.9093166789
  H         3.3468117687       12.6921876242       23.3625806479
  H         2.8690490001       12.7436974996       24.9866934213
  C         4.3304337316       14.1928981214       24.5026221790
  C         2.4951205397        9.3075564806       20.0895222610
  C        -0.3289905534       10.8053402740       27.0212970383
  H         0.4803500356        9.1502559552       25.7827935729
  C        -0.7668450275       12.5443533172       28.1387558168
  H         4.9013706585       13.5765393477       25.2331182451
  H         4.1309002461       15.1335565769       25.1065665003
  C         5.0788244018       14.5383636092       23.2475039438
  C         2.4429260830        7.9173583623       19.8531382597
  C         2.9658352089       10.1616433713       18.8999708753
  C        -0.6479259103       10.0909583063       28.2568172997
  C        -0.8866901604       11.4490850243       28.9582088870
  S        -1.1054148289       13.9956556921       28.9594845524
  H         5.7128296733       15.4585924826       23.3619969612
  H         4.4915374480       14.6961389846       22.3182435029
  C         6.0751928229       13.4453793413       22.9089995536
  N         2.3270919857        6.9388348793       20.8304182474
  C         2.7085090989        7.3606444014       18.5934592694
  C         3.1221812177        9.5737761188       17.6828339061
  H         2.9513751408       11.2163359471       18.9520524660
  C         0.5584403686        9.2066290820       28.7072415747
  C        -1.9328070792        9.2576428425       28.0687637183
  C        -1.3083749348       11.7879617816       30.2213155888
  C        -1.3902725766       13.1479566894       30.4049617367
  H         6.6809018579       13.1299193017       23.7229297259
  H         5.4756074326       12.6137543762       22.7123534473
  C         6.9892479260       13.5595523321       21.7055124284
  S         2.4622802807        5.5004571018       20.0950803106
  N         2.6264182939        5.9870652781       18.5454369171
  C         3.0124441185        8.1008582034       17.4357990897
  H         3.2915189711       10.2169244052       16.8532454048
  H         0.9805365428        8.5959962891       27.8801395515
  H         0.1783379854        8.4294501838       29.3750304495
  C         1.5518773860        9.9654501579       29.4148150196
  H        -1.6979831604        8.4581274315       27.4221871120
  H        -2.2501090738        8.7602281638       29.0223786646
  C        -3.1901576468       10.0595323124       27.5240491740
  H        -1.5458160075       11.0005732680       30.9322731301
  C        -1.7030631084       13.8082665704       31.7171648285
  H         7.6729070876       12.7391285403       21.6880770114
  H         7.6501045133       14.4361664681       21.7475198441
  C         6.1555757214       13.5859594414       20.4397267001
  C         3.2914792047        7.3754077931       16.2286110495
  H         1.9250144923       10.7689050948       28.8232397480
  H         1.1621931459       10.3742535637       30.3326552407
  C         2.7743940075        9.0306734806       29.7659229458
  H        -3.0520962568       10.4483500406       26.5479036757
  H        -3.3467995854       10.9209460555       28.0900270014
  C        -4.4867168544        9.2421383193       27.5694273432
  C        -1.7435997773       15.2064523777       31.9898671503
  C        -1.7988948147       12.9953090826       32.9508701045
  H         5.4022792120       12.8601548999       20.4494826456
  H         5.5981020265       14.5160085223       20.4103662239
  C         7.0380922459       13.5181184910       19.2405350284
  H         3.0985428845        6.3504870159       16.2773909657
  C         3.8049526109        7.7301203238       14.9694617488
  H         3.2610729443        8.6923465712       28.8695454287
  H         2.6674376359        8.1389945446       30.3073188930
  C         3.8407825556        9.8841363774       30.4238153601
  H        -4.5363168711        8.3736397243       26.8098461352
  H        -4.6747620730        8.8747450220       28.5822318630
  C        -5.6984810671       10.1565958547       27.2171674583
  N        -1.6100173607       16.1485405632       30.9510590986
  C        -2.0471286782       15.7596370734       33.2203863682
  C        -2.0121182885       13.5768467961       34.1663635110
  H        -1.6321530730       11.9658729684       32.8572349420
  H         7.8151976590       12.7601969210       19.2297039812
  H         6.4859053957       13.2733830016       18.3316556274
  H         7.6569256511       14.4166331098       19.1347748811
  S         4.0919351996        9.3555118756       14.3699592743
  C         3.9616392414        6.7121146050       13.9218368817
  H         3.9333903496       10.7686936449       29.8371129917
  H         3.4349619877       10.3226087817       31.2669366349
  C         5.1873362192        9.3074653935       30.9322923120
  H        -5.3105157849       11.1821893720       27.0652294437
  H        -6.3624973765       10.1946796457       28.0502351182
  C        -6.3775029188        9.5323348000       26.0089331810
  S        -1.7238051921       17.6656540570       31.6271368784
  N        -2.0833948492       17.1847593154       33.1276759609
  C        -2.2502228266       15.0449729243       34.3459004925
  H        -2.0201069804       12.8917051476       35.0079048180
  C         4.2006825313        8.6215089575       12.7382803888
  N         4.1975256357        7.3015145216       12.7220703224
  O         3.9184076091        5.5339088036       14.1466032761
  H         5.0757030888        8.7543606463       31.8894191734
  H         5.9286899085       10.1185514201       31.2284073875
  C         5.8675507704        8.4157092905       29.8249904281
  H        -5.6303129054        9.1530143452       25.3131805094
  H        -7.0342346779        8.6849063463       26.1801967536
  C        -7.2156476744       10.5075481104       25.2693673768
  C        -2.5577322867       15.8000910948       35.5333867299
  S         4.2807260167        9.5808612410       11.2145626554
  C         4.4220990874        6.5115675463       11.5103084675
  H         5.3033841413        8.2003538566       28.9699711049
  H         6.7214186308        8.9206650913       29.3729921977
  C         6.6166654179        7.2367966652       30.3660886245
  H        -6.6344515109       10.8857049437       24.4443153289
  H        -7.3245066602       11.4600790376       25.9432078343
  C        -8.6226246471        9.9446251068       25.0143443441
  H        -2.5014964355       16.8594905714       35.5118134607
  C        -3.0734027136       15.3860749880       36.7363600622
  H         5.2335295925        7.0399629145       11.0399466008
  H         4.8097338181        5.4951405340       11.7043065174
  C         3.1304043867        6.5079861462       10.6117734407
  H         6.9446113599        7.5509840842       31.3791972349
  H         7.3619322474        7.0247886410       29.6294028553
  C         5.7110989914        6.0223376285       30.5922382104
  H        -9.0484018911       10.5107060969       24.2351396847
  H        -8.5042690673        9.0125191796       24.5021811966
  C        -9.6089845568        9.8836055644       26.2268537495
  S        -3.3080445176       13.7495667322       37.1776934602
  C        -3.3033379326       16.3442616895       37.8119124144
  H         3.1445277156        5.8937452804        9.7019734901
  H         2.2471128473        6.2974771166       11.2466194830
  H         3.1014759676        7.4982673015       10.2555385889
  H         6.2695292699        5.2980634328       31.2411461900
  H         5.3887030223        5.4756561590       29.6992540174
  H         4.8133595058        6.3509348054       31.0683573592
  H       -10.6512104783        9.8179128856       25.8970957897
  H        -9.5607318656       10.7255868378       26.8865911936
  H        -9.4748075006        9.0746067147       26.8799247639
  C        -3.8786612880       14.3507232912       38.7408898442
  N        -3.8444224468       15.6856823296       38.8695123830
  O        -3.1373686023       17.5360990853       37.6653562959
  S        -4.4974937141       13.3753366469       40.0899780607
  C        -4.1524925881       16.4012341448       40.1482918065
  H        -4.5592342744       17.3601356417       39.9291074613
  H        -4.9644679878       15.9298270035       40.6251773967
  C        -2.8811657144       16.5507130017       40.8811025228
  H        -2.0129993282       16.2490638159       40.2949506062
  H        -2.7728368305       17.5495201593       41.3004237200
  H        -2.9311051532       15.8691286540       41.6307785031
