352
 i =     6200, time =     6200.000, E =        28.6753133597
  H        11.7885841122        5.4182144701       32.1473504626
  C        10.7526320581        5.8232019214       32.2239569260
  H        10.3079707522        4.8699282589       31.9650659217
  C        10.6661437159        6.8044374871       31.0981218182
  C        10.4555093143        6.2477919156       33.6051649302
  C        11.1813612698        6.1852867382       29.7914498110
  H         9.6457800264        7.1532263004       30.9485941022
  H        11.2144364367        7.6946269856       31.3510684552
  H        11.0215571953        7.1740972632       33.8715137167
  H         9.4209648219        6.3708937003       33.8663739143
  H        10.8707433631        5.4110518304       34.1987212843
  C        10.0435780819        5.8767905560       28.7358904128
  H        11.6840109493        5.2508403913       29.9851198843
  H        11.8497071660        6.9590606876       29.3903222175
  C        10.5613577387        5.7199090812       27.2946203353
  H         9.5446933119        4.9598073045       29.0040746151
  H         9.3695205150        6.6708015476       28.8461350744
  C         9.6029936720        5.0273917047       26.2656288986
  H        11.5879711545        5.3083484867       27.2116585227
  H        10.6638775721        6.6613733892       26.8188769116
  C         8.3458881811        5.8972143070       26.0244771991
  H        10.2793620118        4.8759108907       25.3752645802
  H         9.3144262263        4.0883193672       26.7327023672
  C         7.2422807243        5.2111794683       25.2765421059
  H         7.9615646229        6.1907127224       26.9678456388
  H         8.6309903062        6.7086843392       25.4069284956
  C         6.8440069332        3.9001380110       25.9759002187
  C         7.6271933110        4.4860666120       24.0321074180
  C         6.0859494516        6.1566349714       25.0470415758
  C         7.1439059886        2.7564794661       25.2242710519
  C         6.2220029819        3.5305473705       27.1822742700
  C         7.6860356019        3.1462497194       23.9775691579
  C         8.1833288983        5.1124345010       22.9440368739
  H         6.3542565448        6.9893110401       24.4058091440
  H         5.7920508807        6.5068094757       26.0083081918
  C         4.7914208957        5.6089192940       24.4107979882
  S         6.6883033947        1.2143982933       25.9877557462
  C         6.0826760617        2.1784659946       27.3903575454
  H         5.8857651161        4.2993541210       27.9095453638
  C         8.1000414288        2.4372135331       22.8971811885
  H         8.3742825492        6.1892376638       22.9778285512
  C         8.5728330118        4.4337464926       21.8147218037
  H         5.0581863917        5.2425732011       23.4529488452
  H         4.4579040470        4.7837034134       25.0034790172
  C         3.6093776963        6.6069190795       24.3989057985
  C         5.5967702031        1.5843271617       28.6997193265
  C         8.6884708181        3.0883229959       21.7552617137
  H         8.1724693165        1.4346179422       22.9234041492
  C         8.9743371953        4.7868099031       20.5469569666
  H         2.8745439267        6.1733609308       23.6772086743
  H         3.7309726958        7.5755019817       23.9103427271
  C         2.8612976352        6.7707023588       25.7337952850
  C         5.7659503401        0.2373638898       28.9989147173
  C         5.0352088436        2.4205969631       29.8355319772
  C         9.0105667445        2.3212414472       20.5632090360
  C         9.2079368542        3.6301786288       19.8058187530
  S         9.1212155872        6.2600710864       19.7284383893
  H         2.2515440479        7.6677208864       25.5348955605
  H         3.6014058018        6.9928371299       26.4718804900
  C         1.8568422827        5.6361814061       26.0583062134
  N         6.1477480134       -0.7851938057       28.0780317788
  C         5.4226868012       -0.3006268393       30.2232254413
  C         4.8012325832        1.8523967878       31.1099792597
  H         4.8702384286        3.4046707847       29.7762230893
  C         7.9402284376        1.4543187969       19.8419781766
  C        10.3524847103        1.5524433006       20.6703219101
  C         9.5090235451        4.0810525376       18.4866256948
  C         9.5398559942        5.4347814401       18.3077184581
  H         1.3292600235        5.2425324248       25.1682099165
  H         2.5091583064        4.7765048101       26.3670454309
  C         0.9539816362        5.9005273003       27.2341433624
  S         6.1418228409       -2.1815810745       28.8197625297
  N         5.5232261165       -1.6870903087       30.2349262608
  C         5.0644819884        0.4468761382       31.3711981659
  H         4.5616990635        2.5403698900       31.8998164645
  H         7.8895782849        0.4839023918       20.3840611178
  H         8.3204117442        1.1727125667       18.8413280828
  C         6.6673720719        2.2412982392       19.4942499544
  H        10.6273836918        1.3785391883       19.6540304972
  H        10.1230027553        0.5745651718       21.1468358781
  C        11.4814482902        2.4049905591       21.3179243032
  H         9.6870477329        3.2669513564       17.7626882311
  C         9.8863378872        6.1879247004       16.9846657961
  H         0.0477321972        5.2532795981       27.2839349126
  H         0.6228147206        6.9956164386       27.1333757046
  C         1.7054983988        5.6909923834       28.5439343637
  C         5.0576389153       -0.2680627877       32.6243574599
  H         6.8807417811        3.0516514740       18.7410421703
  H         6.3029237669        2.7992645067       20.3016227146
  C         5.5847078124        1.3473625769       18.9288884402
  H        11.0506607396        2.5824664677       22.2739582276
  H        11.6830216194        3.3382619141       20.8285587870
  C        12.7715042766        1.6647186680       21.6016677570
  C        10.0742475623        7.6217891854       16.9692372309
  C        10.0619509007        5.4942178415       15.7544626298
  H         2.2364527281        4.7067167519       28.6982901053
  H         2.5117517285        6.4637898667       28.5658986541
  C         0.7500914280        6.1257246299       29.6964375694
  H         5.3680707579       -1.2569085991       32.5895972043
  C         4.7851983661        0.2221502856       33.8751015613
  H         5.4008384543        0.4221543289       19.5206580873
  H         5.7808163710        0.9845341894       17.8922835127
  C         4.2121422179        2.0282550917       18.9412733474
  H        12.4906943254        0.8004524264       22.1588265438
  H        13.1290029983        1.1955179769       20.6692289958
  C        13.7741620908        2.5023285535       22.3922151421
  N         9.7474172993        8.5606474365       17.9538564106
  C        10.3782889593        8.2151194205       15.7840081770
  C        10.3103115621        6.1100807144       14.5165884487
  H         9.8784272129        4.4215166457       15.7292971716
  H         0.7839982008        5.4274109750       30.4549166466
  H         1.2721883846        6.9827025759       30.2429033959
  H        -0.1745470434        6.4148428106       29.1712590631
  S         4.3024036067        1.7887488457       34.3524983010
  C         4.7382304346       -0.7923242431       34.9129106249
  H         4.0018861820        2.6855024484       19.7888121213
  H         4.2966251679        2.7078445557       18.1214139147
  C         3.1552756013        0.9777433559       18.6886191851
  H        13.2436703341        2.7304065429       23.3150115956
  H        13.9256765969        3.5035974274       21.8904594072
  C        15.0635328147        1.7262196367       22.7655275183
  S        10.0259800925       10.0928515502       17.4033313991
  N        10.4213663361        9.6043142623       15.8901950168
  C        10.4548463964        7.5550081555       14.4754328885
  H        10.3394319208        5.5245405444       13.5608699705
  C         4.1542909676        1.2032827316       36.0069136173
  N         4.3580826059       -0.1875673374       36.0753740168
  O         4.9620944259       -1.9975672406       34.6918337190
  H         2.2363970974        1.6369381142       18.8232939457
  H         3.1779647267        0.2539611915       19.5312023302
  C         3.1200219975        0.2025730732       17.4049713463
  H        14.7248694028        0.8339989446       23.3874528874
  H        15.4891938641        1.3464147919       21.7665098399
  C        16.0177055641        2.4730996129       23.6735337713
  C        10.8264235867        8.3710017213       13.3559774939
  S         3.6816051858        2.1332779642       37.5347730047
  C         4.5462445937       -0.9028142864       37.3514043009
  H         3.2827367070        1.0021747004       16.7030601277
  H         4.0119308709       -0.4005406062       17.2766214288
  C         1.9281446537       -0.7080308682       17.2053908723
  H        15.6568718113        2.2506949966       24.6561153663
  H        15.9712198725        3.5991948630       23.6760839422
  C        17.4587487253        2.0239966312       23.6038662340
  H        10.6503723594        9.4484180706       13.3981566213
  C        11.1665163414        8.0530012385       12.0549184278
  H         4.1651643878       -0.4449987366       38.3057133401
  H         4.0920425272       -1.9040178419       37.3373615032
  C         6.0241655345       -1.0626708798       37.5866700092
  H         1.6630217812       -0.9559237185       16.1068156380
  H         1.0262802211       -0.2454516469       17.6346813069
  C         2.1970632548       -2.0437215649       17.9515439084
  H        18.1546536549        2.4571166166       24.3678470498
  H        17.4402541026        0.9648220562       23.9918545590
  C        18.0191429323        2.0950248166       22.2136001466
  S        11.6251479950        6.4774468625       11.5759845354
  C        11.4716847391        9.1373479233       11.1450937930
  H         6.2899640564       -0.1739608449       38.3474684995
  H         6.1919092946       -1.9607277577       38.1718829698
  H         6.6405990755       -0.9928864220       36.7161562895
  H         3.3022881353       -2.2182741260       18.1047685991
  H         1.8078635750       -2.8656479441       17.3325590171
  H         1.6594359522       -1.9963289085       18.9447798600
  H        18.8717308294        2.7021438588       22.2424535337
  H        17.2590687101        2.5096161579       21.4163254373
  H        18.1075083320        1.0690992599       21.7727307000
  C        12.1814090960        7.2805026883       10.0275646260
  N        11.9763442159        8.6263396994       10.0124404862
  O        11.1067140258       10.3080247123       11.3243635666
  S        12.7277758279        6.5345506674        8.5561608250
  C        12.0550440593        9.4645156627        8.8072417433
  H        12.0101653952       10.5000085163        9.0907174434
  H        12.9677391425        9.2994521958        8.2246123251
  C        10.7115638301        9.2954673847        7.9462629067
  H         9.8651786561        9.0999734998        8.6976938719
  H        10.6929101395       10.2142521694        7.2880692010
  H        10.8124750085        8.4207022737        7.2551679480
  H        -3.9472733461       14.4618059691       16.3552199534
  C        -3.1541920981       13.6949092172       16.1283732225
  H        -3.6082285255       12.7433347016       16.1873028504
  C        -2.0949340141       13.8487383599       17.2477066874
  C        -2.6083081895       13.9150780933       14.7716057656
  C        -2.6816481120       13.7683804312       18.7332662743
  H        -1.5175085070       12.9469685878       17.1567526503
  H        -1.3533163335       14.7248312850       17.2082395408
  H        -2.7077976448       15.0294610995       14.4485814232
  H        -1.5460851310       13.7782837900       14.8270358411
  H        -3.1166037955       13.2519810472       14.0464378020
  C        -1.6559688294       14.0184856522       19.8537905138
  H        -3.1967243258       12.8198700504       18.8485886925
  H        -3.4549874059       14.4620004095       18.8302348778
  C        -2.3059741526       13.7952483184       21.2363209626
  H        -0.9263448565       13.2691946054       19.7191830793
  H        -1.2816576028       15.0200065885       19.8208316460
  C        -1.2762494407       13.2613856816       22.2602963264
  H        -3.1347513384       13.0566483063       21.1341365632
  H        -2.7375353839       14.7377156442       21.4533572963
  C        -0.0175585335       14.0606625727       22.4917255640
  H        -1.7283059122       13.0331728140       23.1932594083
  H        -1.0326218962       12.2933427665       21.8497184490
  C         1.2478624619       13.3807508459       23.1704150209
  H         0.3561419392       14.6811667755       21.6084307574
  H        -0.3389970100       14.7615105039       23.2395206187
  C         1.5837675322       12.0294286326       22.5570795372
  C         0.8461872886       12.7145828547       24.4789863059
  C         2.4901313340       14.2417184413       23.2306983679
  C         1.2199180538       10.9391970229       23.3451503651
  C         2.0535958287       11.6093047637       21.2621474670
  C         0.6972503708       11.3825639792       24.5646609849
  C         0.3595900775       13.4143350433       25.5683440657
  H         2.8735911740       14.4722983875       22.1979261378
  H         2.2442643845       15.1723638619       23.6849370065
  C         3.6992047352       13.6476413640       24.0118034173
  S         1.7383316890        9.3943185856       22.6170267030
  C         2.2823621593       10.2536191010       21.2348477291
  H         2.1206492517       12.3395450056       20.4338078489
  C         0.1742876481       10.6904681903       25.5828443935
  H         0.3771114896       14.5268256207       25.4504920875
  C        -0.1657784449       12.7649095045       26.7023954802
  H         3.6736411063       12.5648502246       23.7917098221
  H         3.2843317964       13.8587709413       25.0259644823
  C         5.0041984771       14.3986449144       23.8437677805
  C         2.7627052205        9.4774769117       20.0470980134
  C        -0.3330488343       11.4055465059       26.7000665954
  H         0.0764454858        9.5922323245       25.6468783043
  C        -0.6762595684       13.1484499011       27.8784488422
  H         5.6876304511       14.1400011285       24.7066725440
  H         4.8576120315       15.4135276544       24.1229850926
  C         5.6058271732       14.3963551038       22.3866959415
  C         2.6282234741        8.0676096733       19.7361190973
  C         3.2179315418       10.2578751818       18.9016372194
  C        -0.8038489026       10.6737782039       27.9461241632
  C        -1.0909297286       12.0623691310       28.6550202823
  S        -0.9085394322       14.6563815420       28.7382631229
  H         6.2677862470       15.3097604716       22.4114778632
  H         4.8987440722       14.5908535828       21.6175992228
  C         6.4856055208       13.1670757378       22.0836076372
  N         2.1139689423        7.0695296267       20.5402486386
  C         2.9787162327        7.5080598396       18.4493304623
  C         3.5460565000        9.7034370645       17.6651398868
  H         3.3934344078       11.3160483548       19.0162127093
  C         0.3749186218        9.9413313679       28.6780558159
  C        -2.0069975846        9.6968299182       27.6637988550
  C        -1.4926702157       12.5172331649       29.9260404820
  C        -1.4513158693       13.8728283307       30.1211865929
  H         7.2713256440       12.8221003565       22.6925357250
  H         5.8173537740       12.4092231808       22.1458081409
  C         6.9595100493       13.0012908700       20.6212981644
  S         2.0423900258        5.6110603342       19.7561000965
  N         2.7519056242        6.1191148009       18.3902946317
  C         3.3646346130        8.2910918009       17.3518617067
  H         4.0078864666       10.3824022795       16.9808290028
  H         0.8914018788        9.3855291562       27.8963902940
  H        -0.1758047368        9.2765416192       29.4427985668
  C         1.4423834585       10.7869682360       29.4689870429
  H        -1.6755673054        8.7752522628       27.0837323054
  H        -2.2456049931        9.2413016199       28.6661313549
  C        -3.3059789711       10.4268728752       27.1817010440
  H        -1.7661207156       11.7281285035       30.6426048385
  C        -1.7359577541       14.5685702495       31.4172928691
  H         7.5790412682       12.0949640865       20.4651342808
  H         7.6504034645       13.8685817194       20.5737373262
  C         5.7955305261       13.0025097577       19.5629426812
  C         3.4209923514        7.6516320692       16.0771326730
  H         1.8645945472       11.5372966280       28.7787834195
  H         1.0325691536       11.3274336673       30.3501563321
  C         2.6215544733        9.9506669666       29.9738573544
  H        -3.1521413011       10.9636937395       26.1930117388
  H        -3.6419397676       11.1733620440       27.7935610697
  C        -4.3440965393        9.3614531332       26.8762322918
  C        -1.6927702501       15.9547595820       31.5963845642
  C        -1.9469246518       13.7509340224       32.6759903975
  H         5.2570666617       12.0068193562       19.5319302563
  H         5.0077213935       13.7060680620       19.7494966527
  C         6.2823554456       13.2215827059       18.1630522939
  H         3.2718309918        6.5608851756       16.1346222974
  C         3.6906684193        8.1422278572       14.8447124631
  H         2.9636446753        9.5276443975       29.1097221751
  H         2.3692095187        9.0676191454       30.5216654956
  C         3.7617298868       10.8497255086       30.4417163835
  H        -3.9889385848        8.7700379389       26.0347765918
  H        -4.5971421711        8.6673827420       27.6589100179
  C        -5.6228939703       10.0350903117       26.4172639557
  N        -1.6442326351       16.9218335546       30.5885845398
  C        -1.9952206707       16.5891717697       32.8279122693
  C        -2.1759946574       14.3254424063       33.8903573219
  H        -2.1151583288       12.7623061512       32.6217984024
  H         7.0400540972       14.0441295734       18.1211807150
  H         6.8210192694       12.3792496257       17.7610384193
  H         5.5795461470       13.3534623553       17.3228140529
  S         4.0945005652        9.7669893159       14.4461669190
  C         3.6106401055        7.2061528609       13.6649946963
  H         3.8164155707       11.7897928221       29.8794884900
  H         3.4025572100       11.0546449161       31.3727994062
  C         5.1016723800       10.1103013205       30.6857854186
  H        -5.8833928093        9.3942297237       25.5189538277
  H        -5.4876759942       11.0950507858       26.2486373062
  C        -6.7309197133       10.0292632411       27.4576760270
  S        -1.7390854763       18.3677806105       31.2137599028
  N        -2.1149105460       17.9758721066       32.7783237899
  C        -2.1799598462       15.8225031915       34.0183241897
  H        -2.4155145774       13.6234502207       34.6777981041
  C         4.1596407765        9.2027158321       12.7588600750
  N         3.8906347052        7.8858425637       12.5614126517
  O         3.3897958491        6.0161674701       13.7237975777
  H         5.7221081183       10.8473789851       31.2241984301
  H         5.7583910178        9.9358254790       29.8088342880
  C         5.1754996028        8.8044349824       31.4172316132
  H        -6.7545299487        9.0365401993       27.8503612814
  H        -6.4337404130       10.6746545800       28.2617243619
  C        -8.1191295896       10.5238590787       27.0259299534
  C        -2.7090643104       16.5544282500       35.1131035376
  S         4.7957485826       10.1309498791       11.4772986033
  C         3.8619067454        7.3380899179       11.1675105829
  H         5.9898833586        8.8470737896       32.1357594286
  H         4.3439441398        8.6605766680       32.1489142381
  C         5.2431098668        7.6047226211       30.4811031144
  H        -8.0937832409       11.5924747833       26.8055478302
  H        -8.8593257752       10.4230274295       27.8114396996
  C        -8.7020154151        9.7880969759       25.8870718631
  H        -2.4032010863       17.5759499805       35.1420100229
  C        -3.3039568569       16.2045561796       36.3337863082
  H         4.3975982501        7.7186200109       10.3663675252
  H         4.3582934742        6.3559781437       11.2973823746
  C         2.4292862653        7.0985925212       10.7652922817
  H         5.9567550254        7.8227819094       29.7089329566
  H         4.3584937905        7.2989494786       29.9119407596
  C         5.8836423887        6.4042765029       31.2246469759
  H        -8.3406009293       10.1741949586       24.9321095357
  H        -8.4803419393        8.7013432388       25.9943805159
  C       -10.2742164860        9.7695422225       25.9888636720
  S        -3.6686739846       14.6142266591       36.8181164687
  C        -3.3365269794       17.2024917628       37.4003405187
  H         2.2452667068        6.5139038001        9.8945974196
  H         1.9113012405        6.6558085384       11.6095081823
  H         1.9046804236        7.9320872056       10.4154651955
  H         5.4740213814        6.2512909724       32.2132063272
  H         6.8968091465        6.7374979641       31.3219491566
  H         5.8699633741        5.5185535757       30.5974986415
  H       -10.5674903364        9.2136357834       26.8124886195
  H       -10.7261116603        9.4136950939       25.1009632654
  H       -10.6528827000       10.7767047143       26.2111534702
  C        -3.9907403925       15.2917241730       38.4246016131
  N        -3.7456022120       16.5789739287       38.5491236592
  O        -2.9914574887       18.4546919052       37.2595496745
  S        -4.4410712666       14.3448387831       39.8415394801
  C        -3.8286105615       17.3130876065       39.8195359822
  H        -3.9834559926       18.2747246177       39.3999086669
  H        -4.5899340686       17.0280056886       40.5294502205
  C        -2.4958966660       17.3428950646       40.4749629342
  H        -2.6835176489       16.8288428229       41.4400899000
  H        -1.7123630123       16.8143032443       39.9879874992
  H        -2.1927446466       18.3411445255       40.6675857817
