352
 i =     3000, time =     3000.000, E =        40.5987495717
  H        11.7870356988        6.5369732561       31.9685851902
  C        11.3868769957        5.6114822361       32.2902116018
  H        12.1592560764        4.9157278940       32.1291331683
  C        10.4251871389        5.1679344538       31.1821158125
  C        10.9439161613        5.3653374066       33.7553274235
  C        10.7197785281        5.8506202283       29.8053619776
  H        10.5564246606        4.0902338252       31.0959634662
  H         9.4305249288        5.2747369983       31.5932372067
  H        11.6851888088        5.7482714230       34.5164995614
  H         9.9934332474        5.9238816869       34.0248260408
  H        10.8906708512        4.3510557755       34.0779072842
  C         9.8886833267        5.1165527839       28.8064401966
  H        11.7811721342        5.7195803079       29.7451700331
  H        10.5162985549        6.9076979340       29.7082511930
  C        10.5115479341        5.3390446939       27.3456082618
  H        10.0876318922        4.0505031445       28.9715011792
  H         8.8061429811        5.1340687770       28.9230682186
  C         9.6307618880        4.8328779446       26.2451192013
  H        11.5620205055        4.8831054316       27.2550275581
  H        10.7082200534        6.3322199407       27.0564486475
  C         8.3455363066        5.6551815633       26.0097146929
  H        10.1188263047        4.6711248563       25.3275892444
  H         9.4066381052        3.8959013924       26.6430442988
  C         7.1935267937        4.8358834403       25.2660491448
  H         7.8904662306        5.9478025634       26.9823118411
  H         8.5383712617        6.6102138797       25.5128568537
  C         6.9078498872        3.4147011710       25.9236085261
  C         7.6282761328        4.1622369948       23.9938756059
  C         5.9503598874        5.8436076478       25.0148631674
  C         7.1813037416        2.4023147490       25.1098622951
  C         6.4062123645        3.0586367562       27.1401130545
  C         7.6240266737        2.8242450594       23.8240417479
  C         8.1573264712        4.8919160240       22.9611734063
  H         6.1826537328        6.4712930237       24.0587855786
  H         5.9303447123        6.5678366410       25.8522668337
  C         4.6340211599        5.1557048136       24.8322341583
  S         6.7038387084        0.8854551538       25.8053908066
  C         6.2001461019        1.7547625198       27.2405327810
  H         6.2383331427        3.8032031079       27.9265094810
  C         8.0904650124        2.2477518747       22.7100158707
  H         8.4115895660        5.9168252392       22.9577381329
  C         8.5163657324        4.2916242835       21.7338479587
  H         4.6778387376        4.5868828974       23.8983894556
  H         4.3860513110        4.3534793511       25.5153038135
  C         3.3816651263        6.0624864059       24.6829441646
  C         5.7792272991        1.1113507385       28.5015729009
  C         8.4953898999        2.9742414411       21.6078067826
  H         8.0256730836        1.1735231654       22.6735206856
  C         8.9944830932        4.8132788128       20.5391662355
  H         2.7437018080        5.5579283687       23.9169608908
  H         3.6512800611        6.9393767732       24.0767132558
  C         2.6575952801        6.3222047484       25.9097649092
  C         5.7449686651       -0.2765386396       28.7531850262
  C         5.4540827657        1.9992296283       29.7097716450
  C         8.9943480761        2.3994874245       20.2967714095
  C         9.2748217083        3.7555492834       19.6501463720
  S         9.2701900231        6.3567547837       19.7328925001
  H         2.0722770871        7.2250538797       25.7811566857
  H         3.5258904285        6.4425563600       26.6124202752
  C         1.7590344216        5.1683416223       26.3757795726
  N         5.9371874065       -1.2571041153       27.7851663091
  C         5.6851341377       -0.8154450629       30.0483169847
  C         5.0851105684        1.3635251492       30.9397633962
  H         5.3025460655        3.0785037247       29.5867890492
  C         7.9333495664        1.5740250349       19.4869643590
  C        10.2831969731        1.6683099932       20.6174809957
  C         9.6976526973        4.2181870097       18.3935519703
  C         9.7172695732        5.5567860631       18.2760953257
  H         1.0289592023        4.9746710915       25.6579534765
  H         2.3477077848        4.3090919842       26.4844443737
  C         0.9787657798        5.5010324594       27.6575952923
  S         5.9575768853       -2.6939751643       28.4401196001
  N         5.6592231346       -2.2216896589       29.9809700348
  C         5.3201816367       -0.0841191579       31.1958654078
  H         4.9783094560        2.0591407559       31.7645743667
  H         7.4126369520        0.8861512494       20.1088242314
  H         8.3347380859        0.9273099223       18.7397990446
  C         6.7285885885        2.5017208055       19.1439120128
  H        10.4195332939        1.3497087991       19.6128476182
  H         9.9969332137        0.8049765683       21.2545439899
  C        11.5334712614        2.4613587412       21.1509982569
  H        10.0679854322        3.4853288650       17.6599847223
  C         9.9457735667        6.1974668087       16.9410282610
  H         0.3093830484        4.6042182416       27.7270692598
  H         0.3177442742        6.3440674707       27.6129338812
  C         1.8939182044        5.5166152327       28.9131850737
  C         5.1324389751       -0.8100359752       32.4261527343
  H         7.0483949662        3.3094575661       18.5935494846
  H         6.2817347336        2.8935608369       20.0563212801
  C         5.6314913208        1.7846445973       18.4123369031
  H        11.0818899507        3.1624452947       21.8816998869
  H        11.9531442546        2.9587443964       20.3050262226
  C        12.5744395180        1.6663576174       21.8259545037
  C        10.0681331044        7.5977502211       16.7195369490
  C        10.0503024639        5.4098348819       15.7102055703
  H         2.4414131150        4.5636831909       28.9964367572
  H         2.4453241012        6.5173117799       28.9614879968
  C         1.1350935690        5.4629600566       30.2181344798
  H         5.7100601685       -1.7850264381       32.4142439898
  C         4.7381007490       -0.4321895680       33.6195563777
  H         5.2156451290        1.2307946657       19.3037880359
  H         6.1568046809        1.1480336312       17.6502813604
  C         4.5412107364        2.7928404134       17.7490425618
  H        12.1423611490        1.0219502075       22.5766067714
  H        13.0013477594        0.9972050484       21.0079314741
  C        13.5531372680        2.6367893744       22.5199141962
  N         9.7781419631        8.5979368660       17.7179495730
  C        10.1719479239        8.2103965435       15.4808051057
  C        10.2113373935        6.0298227756       14.4784612881
  H         9.7262475676        4.4157848190       15.7995427651
  H         1.9952237179        5.4187852060       31.0918188148
  H         0.5754273649        6.3576834491       30.3858854549
  H         0.4305199601        4.6631349523       30.2850990547
  S         4.3269933397        1.2105025986       34.1070310880
  C         4.8104303074       -1.4629197054       34.6809984446
  H         4.7054343209        3.6576693490       18.3691896997
  H         4.8090269735        3.0435691221       16.6625379503
  C         3.0554140458        2.3393669042       17.8646218128
  H        12.9939080970        2.9887246507       23.4396314609
  H        13.8526389550        3.4408598873       21.8650048795
  C        14.8256588268        1.7892731471       22.7454934568
  S         9.8350118925       10.1161166677       17.1208237756
  N        10.0828993826        9.6120026596       15.5882059006
  C        10.3749714992        7.4818278694       14.2914382619
  H         9.9589014353        5.5093376816       13.5565015214
  C         4.1993143665        0.4375163803       35.6994445954
  N         4.4458486750       -0.8895927152       35.8053529688
  O         5.0647898167       -2.6084520765       34.5272894309
  H         2.6226248535        2.9122813869       17.1401049984
  H         2.6066817668        2.6167277136       18.8510188205
  C         2.8215703006        0.9168471139       17.3591000466
  H        14.4663783045        0.9559285080       23.3092976047
  H        15.1853022598        1.3594244714       21.7749502045
  C        15.8443182290        2.5224371792       23.5884135543
  C        10.6198015065        8.2153095322       13.1382177405
  S         3.9964733529        1.2893062725       37.1934995701
  C         4.3669534452       -1.6584232127       37.0457682469
  H         1.9155484420        0.9017052154       16.7326670109
  H         3.5545217212        0.4918714921       16.6590863657
  C         2.3868315530        0.0548626772       18.5487730051
  H        15.6592021656        2.6889003831       24.7099963245
  H        16.1148966611        3.5239433435       23.1908284059
  C        17.2381322494        1.7901569506       23.4908240465
  H        10.0673251588        9.1487621048       13.1336000820
  C        11.1743911979        7.8287057269       11.9883307592
  H         3.6452742343       -1.2047142128       37.6286417163
  H         4.2155959642       -2.7061612325       36.8055936847
  C         5.7165825287       -1.7076333565       37.8219756238
  H         1.3796326875       -0.1722658993       18.2933898135
  H         2.3754546460        0.4145566236       19.6052623254
  C         2.8087983309       -1.4026519861       18.2576789427
  H        17.7164156185        1.8509626152       24.3701017190
  H        17.0094352732        0.6718035116       23.4290342260
  C        18.1550573532        2.0918056381       22.2511733952
  S        11.7559405154        6.3129232576       11.5956692096
  C        11.3997808394        8.8682767332       10.9755279743
  H         6.3098061112       -0.8835796463       37.7355162851
  H         5.5604546835       -1.7063541035       38.8765900223
  H         6.3417085881       -2.5451732183       37.5682583474
  H         2.5687745200       -2.0808110973       19.0727869010
  H         3.8901749329       -1.5622377533       18.1554191339
  H         2.3450583862       -1.7591831720       17.4410666876
  H        18.9937248955        1.4585445405       22.2725801816
  H        18.6833007420        2.9981836540       22.2356279117
  H        17.6028042925        2.0400034256       21.2412595014
  C        12.2889187271        6.9811820428       10.0929239160
  N        12.1208730648        8.3250452679       10.0109275398
  O        10.9511233588       10.0120842947       11.0762392535
  S        13.1861950375        6.1771403856        8.7968867181
  C        12.5730848290        9.1503182608        8.7785121057
  H        12.9448278637       10.1010499968        9.2744402294
  H        13.5615704632        8.8130501457        8.3712947532
  C        11.4966690818        9.1029830143        7.6457474109
  H        11.6142938533        8.1661679664        7.2234020638
  H        10.4433269652        9.3720110498        8.0244144421
  H        11.6231351224        9.8433320373        6.8092308707
  H        -4.1673357588       13.7212411736       16.4236677815
  C        -3.1363090435       13.4099532404       16.0591499290
  H        -3.0154398051       12.4064812798       16.2033522660
  C        -2.2605778626       14.0435258691       17.0977660364
  C        -2.8462798887       13.8703489009       14.6867445245
  C        -2.7573179263       13.9820247304       18.5460218929
  H        -1.2645183870       13.5342789832       17.0336345807
  H        -2.1445574388       15.1090866059       16.7791152845
  H        -3.2113126939       14.8563726515       14.2471810695
  H        -1.8802692471       13.5444450994       14.3761757681
  H        -3.5357635891       13.2329594277       14.1416895122
  C        -1.7391398191       13.4978701607       19.5801061129
  H        -3.7090273329       13.4648754919       18.6974703139
  H        -3.1063371191       15.0216949068       18.7586142723
  C        -2.3928325651       13.4949378883       20.9305100397
  H        -1.6116811725       12.4068523301       19.3770798458
  H        -0.8859664296       14.1231881233       19.4284640397
  C        -1.4860717518       12.9204563079       22.0327748069
  H        -3.3082267915       12.9392123548       21.0787057057
  H        -2.7821000543       14.5346697935       21.1825154379
  C        -0.1635257109       13.6969394176       22.3011861337
  H        -2.0966358814       12.8604388464       22.9091803689
  H        -1.1988607646       11.9012516882       21.7746126215
  C         0.9658012426       13.0119099331       23.2053513825
  H         0.2790809332       13.9135876407       21.3117318501
  H        -0.4810209627       14.6328927204       22.7328688904
  C         1.3174582662       11.6665918269       22.5726967660
  C         0.3792496068       12.3213523358       24.4552842981
  C         2.2389562874       13.7644373154       23.4086928025
  C         1.0468003663       10.5646091771       23.3220044328
  C         1.8904556042       11.2984375186       21.3423575557
  C         0.5067263059       10.9349873058       24.5542637763
  C        -0.0620176696       13.0406875761       25.5921292292
  H         2.5069795129       14.1508881400       22.4108615545
  H         2.0102178791       14.6303977897       23.9191265433
  C         3.3984918318       12.9227082943       24.0927995970
  S         1.6472016997        9.0843691230       22.5697746530
  C         2.0332891646        9.9702254630       21.1323534453
  H         1.8783087054       12.0875195713       20.6410589945
  C         0.1948256992       10.2976639342       25.7478753782
  H        -0.0748063488       14.0803541215       25.5513704036
  C        -0.3703554407       12.3596642694       26.7523076881
  H         3.7407485306       12.2392191237       23.4036528121
  H         3.1325825167       12.3907450028       25.0111835267
  C         4.6282152976       13.8334606696       24.3730254705
  C         2.4559410290        9.2283122036       19.9255094294
  C        -0.2956465705       10.9929734675       26.8740735603
  H         0.2741293362        9.2824679267       25.9488558023
  C        -0.7313399135       12.7152406672       28.0809900304
  H         5.3157386650       13.2653835751       25.0571023769
  H         4.3579114189       14.6444753447       24.8852607604
  C         5.4496917621       14.2547891715       23.1216892421
  C         2.4791778899        7.8184423175       19.6305989414
  C         2.8175700734       10.0862829850       18.8092837053
  C        -0.6936770277       10.2726739171       28.1778311286
  C        -1.0123522300       11.6176826575       28.8256248998
  S        -0.8637974691       14.2061561239       28.9449500724
  H         6.0505567597       15.0990215060       23.4599511117
  H         4.7686216935       14.6781376541       22.3384977058
  C         6.4578103631       13.2183755976       22.5248836386
  N         2.3153013308        6.8049762974       20.5985817163
  C         2.7152858326        7.2851044785       18.3866080524
  C         3.1350178021        9.5841336666       17.5305850198
  H         3.1681353086       11.1299578614       18.8400646009
  C         0.3746431592        9.4684437065       28.9442950223
  C        -1.9736844208        9.4829058108       28.0013230232
  C        -1.3798005696       11.9463006207       30.1205102947
  C        -1.2630688874       13.3468330683       30.4106539260
  H         7.3969114580       13.0286821687       23.1602118780
  H         5.9801230659       12.2261818413       22.1487077682
  C         7.0474887176       13.7674385115       21.2296149303
  S         2.1715758097        5.3503038108       19.8081137631
  N         2.5794698196        5.8841273665       18.3914534538
  C         3.0364892717        8.1370390818       17.2263602997
  H         3.6146743796       10.2242114223       16.7835429980
  H         0.6320303021        8.5592981777       28.4727814244
  H        -0.1374483131        9.2470900429       29.8242721942
  C         1.5832953701       10.3007872499       29.3720317285
  H        -1.7689856118        8.7286545557       27.2856784840
  H        -2.3189158281        9.2478671351       28.9451318232
  C        -3.2065157474       10.2842646607       27.4075404523
  H        -1.5345454351       11.2392871789       30.8881925424
  C        -1.5853289900       14.0641291944       31.6385833573
  H         8.0180475813       13.1841955029       20.9812363430
  H         7.2625846853       14.8057611463       21.3878902341
  C         6.0085454622       13.7904170447       19.9629441589
  C         3.1411671797        7.4714149463       16.0013064775
  H         1.9151363441       10.6407688959       28.3353634299
  H         1.3287426270       11.1660551644       30.1071808870
  C         2.6084491066        9.4510892452       30.1101598557
  H        -2.8303370366       10.8511073242       26.5267717740
  H        -3.5966072634       10.9734972330       28.0831000517
  C        -4.3868852816        9.3732371903       26.9490567421
  C        -1.6482857219       15.4870360686       31.8242529399
  C        -1.8865842180       13.2553251774       32.8298374473
  H         5.2935756612       12.9278469258       19.9460241415
  H         5.4417451360       14.6994676122       20.0764723567
  C         6.7237140907       13.9423147349       18.6539650688
  H         2.8508862924        6.5323156753       15.9391466583
  C         3.3903246100        7.9897232274       14.7521876922
  H         3.2805047614        9.0555672247       29.3431899135
  H         2.1705524339        8.6500352606       30.5234677195
  C         3.5934957578       10.1902784001       31.0201895820
  H        -4.2868579074        8.6807748786       26.0676764993
  H        -4.8220989656        8.8787457320       27.6853790688
  C        -5.4370724047       10.2222363055       26.3027959710
  N        -1.3457395930       16.3764358594       30.7891245747
  C        -2.0414047099       16.1012055258       32.9879154722
  C        -2.1436859834       13.9096119573       33.9924833936
  H        -1.5813776804       12.2493289848       32.8354586817
  H         6.1416574510       14.2840090973       17.8017950549
  H         7.5000809288       14.7598694071       18.7852510083
  H         7.2170364303       13.0950389547       18.3752057443
  S         3.7442138027        9.6640475364       14.3786060642
  C         3.5640573952        7.0910353673       13.5320501385
  H         3.5936840768       11.2021816232       30.7792133044
  H         3.0400215235       10.2978248470       31.9793637192
  C         5.0168780362        9.6298210154       31.1898090322
  H        -5.5263226807       10.0024091687       25.2594080180
  H        -5.2999703370       11.3375951668       26.3412377080
  C        -6.7825502159       10.3741228813       27.1116525803
  S        -1.4400094791       17.8874206088       31.3702835498
  N        -2.0148831944       17.5307027720       32.8664221629
  C        -2.1997577964       15.3455213286       34.1870274854
  H        -2.1801793215       13.3920458820       35.0014754772
  C         3.9389059579        9.1865042780       12.6847666745
  N         3.9096797353        7.7959402372       12.4389781507
  O         3.4153613359        5.8703887305       13.5114112960
  H         5.7114391064       10.2644513940       31.8496097723
  H         5.4932904467        9.5773419489       30.2809517603
  C         5.0938179710        8.2161360553       31.8101802662
  H        -7.2267069370        9.4418771806       27.1740297937
  H        -6.5629815319       10.8025322062       28.0296365857
  C        -7.7112721425       11.2084538048       26.2293881047
  C        -2.5442527468       15.9894243784       35.3250446051
  S         4.3558717439       10.1485714195       11.3580332826
  C         3.9584984856        7.0880746634       11.1291608531
  H         5.9492598173        8.2197410057       32.5223559173
  H         4.2912059460        8.1435745505       32.5980380473
  C         5.2244286294        7.0628181841       30.9353426538
  H        -7.1441223180       12.0161861893       25.8350985548
  H        -8.5123451479       11.6925185117       26.7446139110
  C        -8.3134414811       10.2277681766       25.1975721825
  H        -2.1625655905       17.0769419601       35.3662956385
  C        -3.2172039222       15.6570829930       36.4827491279
  H         4.7324489206        7.4470406740       10.4340178038
  H         4.4070910134        6.1235632475       11.1712110450
  C         2.6522848289        6.9751455992       10.3915655227
  H         6.0991954566        7.3051479271       30.2743742189
  H         4.3004547697        6.9240824915       30.4841040707
  C         5.5306043870        5.7440535219       31.6613171961
  H        -8.4655362320       10.8394739358       24.2875827724
  H        -7.6317175962        9.4779536799       24.7806165299
  C        -9.6596540156        9.7285847093       25.8018394258
  S        -3.6462486744       14.0934245465       37.0570794684
  C        -3.2875506541       16.7712727286       37.4625202808
  H         2.8215849587        6.8820128957        9.2709782185
  H         2.1979331387        6.0700643555       10.8300757557
  H         1.9650827093        7.8312805561       10.6281838939
  H         5.3158607166        5.0414274003       30.9613336977
  H         4.9484155865        5.5002203207       32.5019542813
  H         6.5738045109        5.7646098383       31.8940220958
  H        -9.4293680192        9.2704187036       26.7739334042
  H        -9.9195815131        9.0515899156       24.9762245370
  H       -10.3988924065       10.4959757887       26.0326951014
  C        -4.1257562864       14.9714587545       38.5735206380
  N        -4.0192956543       16.3445825374       38.5151731081
  O        -2.9911997413       17.9274337501       37.1487709301
  S        -4.7920261869       14.2696534951       40.0740828649
  C        -4.2398570946       17.0771938868       39.7764807365
  H        -4.3968427345       18.1641059589       39.4758862656
  H        -5.1090503212       16.6913199379       40.3132495163
  C        -2.9737345786       16.9327463890       40.7591815737
  H        -3.3150813128       17.3092466956       41.8013540889
  H        -2.6265613664       15.8563097707       40.8638396378
  H        -2.1680259986       17.6016365818       40.3887280121
