352
 i =    71500, time =    71500.000, E =        24.8382899710
  H        12.4652773711        5.8211392452       32.4644010641
  C        11.4011423351        5.9466086229       32.4086052564
  H        10.9461696827        4.8872623288       32.2804886570
  C        10.9310396439        6.7563759244       31.1709268815
  C        10.9229562928        6.5258818449       33.7184507240
  C        11.3690051248        6.0754604335       29.8713662620
  H         9.8613697096        6.7620821037       31.2680879349
  H        11.2295714163        7.7660297940       31.2638683202
  H        11.7860798884        6.8314252523       34.3285295037
  H        10.2594960828        7.3471416242       33.5060828767
  H        10.2769135517        5.8545183175       34.3198462071
  C        10.1788161002        5.9258600939       28.8836950236
  H        11.9340406982        5.1449430589       30.0057233710
  H        12.0738023990        6.6935860314       29.3503893600
  C        10.7953251040        5.8259808222       27.4724932940
  H         9.3747251746        5.1180961881       29.1146083575
  H         9.5303669890        6.8367567092       28.9600184399
  C         9.8756571486        5.1046829061       26.5017453324
  H        11.7688844008        5.3018315208       27.4050949264
  H        11.0696268138        6.8567751669       27.2500784375
  C         8.7036963044        5.9924651405       26.1928143218
  H        10.4726868732        4.7536421912       25.6768467358
  H         9.5837170955        4.2166363793       26.9428363373
  C         7.4731726350        5.2981175891       25.3759821478
  H         8.3062020883        6.3621549383       27.1176200295
  H         9.0877092747        6.8786940078       25.7809988936
  C         7.0574852857        3.9139150607       26.0014136489
  C         7.8315574901        4.6292982427       24.1024785618
  C         6.2251419719        6.2224754925       25.2142172442
  C         7.3076260450        2.7951239333       25.2033038121
  C         6.6162481058        3.4942656731       27.3101522212
  C         7.8307047657        3.2629753402       23.9894390234
  C         8.4707105685        5.2941220602       23.0424634011
  H         6.2085907607        6.6774685676       24.2685041206
  H         6.2755556357        7.0328423000       25.9323554768
  C         4.9114347856        5.4689105135       25.4091967649
  S         6.9277728560        1.2215183990       26.0597543214
  C         6.4128202023        2.1531024571       27.4599556561
  H         6.2931540148        4.2859883840       27.9987769970
  C         8.2607245630        2.6669685761       22.8361103623
  H         8.6228326100        6.3258997863       23.1175185323
  C         8.8135964813        4.6914663875       21.8494573492
  H         4.8330592299        4.4452077922       25.0387264305
  H         4.7710647091        5.2769891586       26.4642665016
  C         3.7610723244        6.2658275547       24.8612033249
  C         6.0190509896        1.4183374904       28.7404711431
  C         8.7068170164        3.3139400581       21.7491232920
  H         8.2087120852        1.5809662745       22.8415140790
  C         9.3575977313        5.0109011339       20.6449018666
  H         3.5023188036        5.8663099634       23.8698325569
  H         4.0807877961        7.3093096782       24.6902106327
  C         2.5006778220        6.3432307949       25.7516324400
  C         5.9665237812        0.0439923088       28.9734683918
  C         5.5063749271        2.2741016358       29.8629590524
  C         9.0753535476        2.6052810318       20.4638669170
  C         9.3748821848        3.9403382667       19.7481940458
  S         9.6081723645        6.5542753134       19.8821742192
  H         1.6523062991        6.6030475984       25.1709500570
  H         2.5784031512        7.2230906126       26.4149477833
  C         2.0006721389        4.9988526925       26.3953182899
  N         6.2269982320       -0.9109881534       27.9726096665
  C         5.6470253885       -0.5142630282       30.2045224584
  C         5.1583704256        1.7158529736       31.0437041340
  H         5.4095746942        3.3011812839       29.7005770868
  C         7.9851354081        1.8043376094       19.6017953916
  C        10.4226053227        1.7733737270       20.7137239892
  C         9.7799521331        4.3934771466       18.4951446606
  C         9.9735501171        5.7422217580       18.3785494746
  H         1.2145590564        4.4329053870       25.8315448715
  H         2.8391115814        4.2846670409       26.3929678832
  C         1.5400751670        5.1143193430       27.8615691339
  S         6.2877448336       -2.3976167177       28.7162328705
  N         5.9850524793       -1.9161204580       30.2624289099
  C         5.2222881937        0.3037068841       31.2815698962
  H         4.9254091431        2.4437180186       31.8372914107
  H         7.7316328218        0.9096944006       20.0701533362
  H         8.5046232463        1.5929482406       18.6240120703
  C         6.6788562791        2.6090192108       19.4135385838
  H        10.8750463604        1.4048328574       19.8419600185
  H        10.2722819508        0.9521757302       21.3583984557
  C        11.5984283147        2.5738660801       21.3059815964
  H         9.8594902744        3.6992745494       17.7286333214
  C        10.2325188527        6.5897055712       17.1211027698
  H         0.9073168581        4.2231075793       28.1083579711
  H         0.8792805143        5.9951502048       27.9848100888
  C         2.5507804077        5.4250243051       29.0058747303
  C         5.1408707256       -0.2714638871       32.5778055480
  H         6.8293619016        3.1738671582       18.5283035170
  H         6.4546655324        3.2934847737       20.2604442930
  C         5.3490677576        1.8791585938       19.1945682693
  H        11.2658114081        2.8786411915       22.2919588015
  H        11.8637685745        3.4241557477       20.7780823458
  C        12.8907716059        1.7947252054       21.6127305329
  C        10.2620527407        8.0132422738       17.0733339702
  C        10.6595833243        5.8723840783       15.8787513299
  H         3.2486945234        4.5694395056       29.0691274532
  H         3.1450114465        6.2937036995       28.6303925875
  C         2.0404767766        5.6744850132       30.3775313713
  H         5.1091982486       -1.3824221631       32.5667314656
  C         4.8084914509        0.1917705011       33.8380600189
  H         4.4542343977        2.5492940843       19.2187488864
  H         5.2912218882        1.1347877717       19.9717073819
  C         5.3366459304        0.8670093190       17.9607281069
  H        12.7278983547        0.8484592128       22.1318813779
  H        13.1755709650        1.5500483525       20.5187045471
  C        13.9671463137        2.6436825565       22.3792949382
  N        10.0489752317        8.8666150722       18.1282989272
  C        10.5851625899        8.6685369316       15.9121610055
  C        10.9150374124        6.5951935876       14.7661037169
  H        10.7027408395        4.7754244318       16.0688083769
  H         1.2880957779        5.0280110709       30.5753554635
  H         2.8728530128        5.2683168101       31.0791825446
  H         1.8118039771        6.7480160660       30.6067313377
  S         4.4099642862        1.7869703152       34.3112783559
  C         4.6962517676       -0.7724956386       34.9298417395
  H         5.9211441874        1.3873711128       17.2451510671
  H         5.8043314848       -0.0470352117       18.2073694666
  C         3.9446924319        0.6489881286       17.3993728865
  H        13.6252649353        2.9096868173       23.3727327230
  H        14.1632363690        3.5387755859       21.8590209018
  C        15.3113108049        1.8748487708       22.6308026366
  S        10.2094888839       10.4255931836       17.6139691727
  N        10.6237616371       10.0847941688       16.0573444899
  C        10.8057258450        8.0170683207       14.7102575983
  H        11.1365476591        5.9735890731       13.8875024005
  C         4.3421590310        1.2614883972       35.8822935677
  N         4.4054099178       -0.0728580391       36.0392478329
  O         4.5961044757       -1.9679446873       34.8225449265
  H         4.0333726777        0.0720341089       16.4760833985
  H         3.5992714490        1.6674677967       17.2166573399
  C         2.9932482280       -0.0516896169       18.3768015709
  H        15.2687625025        1.1296895622       23.3864226284
  H        15.5033338645        1.3264183736       21.7420902232
  C        16.3952896128        2.8606271573       23.1102645918
  C        11.0151266620        8.8088817267       13.5822647822
  S         3.9677742244        2.3230554685       37.2379909454
  C         4.2243224826       -0.7406561327       37.3408362407
  H         3.3177054120        0.1939931323       19.3418315958
  H         2.0227661131        0.3910923462       18.3196027228
  C         2.8550444487       -1.4500084662       18.2871226780
  H        16.0558719965        3.2883601410       24.1034049653
  H        16.4568716774        3.8122475693       22.5592037654
  C        17.7770986675        2.3614568123       23.3601764829
  H        10.5938593646        9.8445652661       13.6400765198
  C        11.5213800730        8.5839647258       12.3133972844
  H         3.6046065530       -0.2002650675       38.0260890764
  H         3.6488025182       -1.6589374492       37.1263290268
  C         5.5649599636       -0.8693380239       38.1432246658
  H         2.2558790896       -1.7260504491       19.2003319519
  H         3.8171024811       -1.9496844016       18.3189587456
  C         2.0275485247       -1.9610156903       17.1280631085
  H        18.4979749984        3.1002690395       23.7665876593
  H        17.8677792064        1.4620097782       24.0247220567
  C        18.3839456897        2.0782903102       21.9515429206
  S        11.9701082185        7.0237619699       11.6425312395
  C        11.5472009249        9.6786687372       11.2969321337
  H         5.6153387854       -1.7419870833       38.7788869267
  H         6.3760261166       -0.8971152703       37.4782485926
  H         5.7713703467        0.0400375917       38.6593780858
  H         1.1096181579       -1.3728644943       17.1514355021
  H         1.8430624049       -3.0184436072       17.2472757013
  H         2.4047159085       -1.7565058034       16.1006343368
  H        18.1951584204        2.8509631155       21.2462489304
  H        17.9254958600        1.0857474234       21.6564791223
  H        19.4807432456        2.0685419333       22.0400091096
  C        12.2577070113        7.8770595825       10.1180414826
  N        12.0699801789        9.2091817023       10.0978613581
  O        11.2156508109       10.8365912425       11.5636630560
  S        12.7878546728        6.9378337179        8.6493380760
  C        12.1424468844       10.0436306213        8.8995632046
  H        12.3767811966       11.1207804761        9.0716721659
  H        12.9373163506        9.7364238182        8.2649713996
  C        10.7939305805        9.9961783507        8.2123852246
  H         9.9551747160        9.9560949000        8.9732254336
  H        10.6137966941       10.9560891672        7.9550756666
  H        10.7316301960        9.3097299012        7.3147510283
  H        -3.6698088199       14.7075420243       16.4286843122
  C        -2.9688029642       13.8290996431       16.4608792036
  H        -3.6792269563       12.9609435616       16.5858576011
  C        -2.1151139157       13.8863489643       17.6736666240
  C        -2.1297999385       13.9040258285       15.2215538183
  C        -2.7888766683       13.5112034952       19.0303172635
  H        -1.3530610081       13.1562468983       17.4402425090
  H        -1.6674145990       14.8397618552       17.7512011500
  H        -2.1644758117       13.0058083371       14.6419010056
  H        -2.4878879459       14.6872599380       14.5748942672
  H        -1.0907491909       14.0708179401       15.4724074382
  C        -1.7664390807       13.0664063519       20.0677440982
  H        -3.5438189351       12.7892359836       18.9960853990
  H        -3.2485820560       14.4196033350       19.3666937771
  C        -2.2263024299       13.0969345939       21.5095629667
  H        -1.5383591038       12.0149869485       19.7950923963
  H        -0.8553931130       13.5817229203       19.8143935639
  C        -1.1386899526       12.6791088346       22.5138060946
  H        -3.0417725458       12.3841557698       21.4722310259
  H        -2.7329331359       14.0460391848       21.7823951953
  C         0.0390381523       13.8188522116       22.7813087802
  H        -1.4796637899       12.2499165440       23.4512576538
  H        -0.7333868742       11.8035291304       21.9989513374
  C         1.2524370783       13.1908682977       23.5351237229
  H         0.4304661320       14.0934960786       21.7940975599
  H        -0.4089763360       14.5800879201       23.3929511120
  C         1.7175154161       11.9201326867       22.8885409135
  C         0.9906389257       12.4982405754       24.8227007839
  C         2.5504682084       14.1280455109       23.7702277813
  C         1.6087252416       10.8229636752       23.6666696624
  C         2.1212264741       11.6315469517       21.5689449056
  C         1.1189446352       11.1355309445       24.8779299309
  C         0.4743659364       13.1845186801       25.9414242359
  H         2.8433022212       14.7326976628       23.0002693696
  H         2.2806339631       14.9303705598       24.4618644839
  C         3.8522026389       13.4303753467       24.1351057491
  S         2.0147063016        9.3517658435       22.8239649456
  C         2.4182178366       10.2925424472       21.4514978070
  H         2.0098491471       12.3377807014       20.7357042130
  C         0.6830083293       10.5434746906       25.9587955681
  H         0.2100547614       14.2471136374       25.8302806085
  C         0.0851942777       12.5125014677       27.0598240187
  H         4.1740830866       12.6745979898       23.4408407142
  H         3.5379965907       12.8040314802       24.9956300670
  C         5.0355935161       14.3728147051       24.3903581969
  C         2.6952427667        9.6851522374       20.1049857052
  C         0.1847946019       11.1546927649       27.1041392455
  H         0.8294246831        9.4790797564       25.9715798319
  C        -0.3450382803       12.7718373888       28.3502679949
  H         5.7397791987       13.8836883918       25.0205428089
  H         4.7148465975       15.2278739502       24.9529945761
  C         5.8781136329       14.6880169997       23.1312052181
  C         2.7993679770        8.2811491644       19.8646565881
  C         2.9914586482       10.5921272934       18.9713374814
  C        -0.1930242573       10.3520289456       28.3142813379
  C        -0.5818245658       11.6071010999       29.0513456974
  S        -0.7372584042       14.1760082401       29.1858444894
  H         6.4880412480       15.4911101411       23.3244367558
  H         5.1986669393       15.0427930979       22.2810699155
  C         6.6646321232       13.6152560496       22.5370862078
  N         2.5736047439        7.3210400649       20.8124162602
  C         3.1317265204        7.7677377465       18.6461124868
  C         3.3319472296       10.0462367562       17.7303270594
  H         3.0647705050       11.6589369929       19.1218487387
  C         0.9593614876        9.6958916489       29.0769199139
  C        -1.4630767874        9.4374675371       28.1117418638
  C        -1.0307709562       11.9083076115       30.3452689895
  C        -1.1991688235       13.2565685905       30.5504468111
  H         7.3505055710       13.2999569198       23.3328987286
  H         5.9832208430       12.7816638999       22.3335430155
  C         7.5945098822       13.8218092448       21.3662128455
  S         2.6964825186        5.8493827320       20.1088479502
  N         3.1551151523        6.3533467797       18.6311437402
  C         3.4089780548        8.5758153865       17.4842684031
  H         3.6675420138       10.6857653905       16.9351557066
  H         1.2451952024        8.9295365262       28.4070407241
  H         0.5324292521        9.1465690008       29.9131446873
  C         2.0860301382       10.6101673244       29.5824367209
  H        -1.1042782774        8.4939923107       27.6487552047
  H        -1.9482179671        9.1834727979       29.0769396945
  C        -2.5359008235       10.1102103625       27.2202918579
  H        -1.1778244596       11.1204310254       31.0891799055
  C        -1.7011593617       13.9413375612       31.7609304743
  H         8.3331967755       12.9815574791       21.4549754700
  H         8.2379760153       14.6823877081       21.4083824650
  C         7.0309764246       13.7624356851       19.9379436765
  C         3.5364830136        7.9231725135       16.2343755246
  H         2.5774304884       11.1133692998       28.7027930804
  H         1.7103807058       11.3123949400       30.2612764190
  C         3.1425415547        9.6875995492       30.1739099714
  H        -2.1628057505       10.1568514663       26.1577918727
  H        -2.6431953853       11.1039035760       27.5279610178
  C        -3.8759263107        9.3837737368       27.1504168296
  C        -1.7267874513       15.3705693004       31.9115466511
  C        -2.0349394318       13.1642819378       32.9989632887
  H         6.6196159409       12.7931362419       19.7677609595
  H         6.2578956245       14.5176094820       19.7658546552
  C         8.0822930260       13.8688266012       18.8557699424
  H         3.5263442769        6.8582555764       16.2605072857
  C         3.6792339871        8.3397412038       14.9324512101
  H         3.4177353134        9.0164378238       29.4004648113
  H         2.6439816096        8.9987210634       30.8958456479
  C         4.4495014491       10.3422641564       30.6820750614
  H        -3.7892503148        8.3842459067       26.6986771693
  H        -4.2260968115        9.1548128744       28.1181784973
  C        -4.8967332367       10.2571461015       26.5377828350
  N        -1.4065357623       16.3346359501       30.9291419164
  C        -2.1454844332       15.9453288729       33.0827528981
  C        -2.2969117245       13.7904447549       34.1839063455
  H        -2.0193354798       12.0724272623       33.0301841829
  H         8.6116959755       14.6770564545       19.1044521195
  H         8.7299511169       12.9873846969       18.7719752488
  H         7.5539004371       14.1854032993       17.9426756433
  S         3.9827853356        9.9094511608       14.3198041463
  C         3.7795425787        7.2521247825       13.9080332006
  H         4.5687801575       11.3598557840       30.2858803155
  H         4.4552610703       10.5200380035       31.7371789002
  C         5.6828951256        9.3385229419       30.3362760654
  H        -4.2623415254       10.9103729283       25.8755689885
  H        -5.3045787373       10.8710200387       27.2392379206
  C        -5.9870759702        9.5666422375       25.8053875630
  S        -1.5474824917       17.8270088461       31.6458309575
  N        -2.0832304482       17.3326670280       33.1038912759
  C        -2.4266290252       15.2458540305       34.2676728974
  H        -2.3759366321       13.1646674181       35.0407826078
  C         4.1554293183        9.1757530237       12.7350513213
  N         4.1831460845        7.7717833496       12.7318177432
  O         3.5403233840        6.0636326837       14.0657478875
  H         6.6400303592        9.8563928629       30.4020392168
  H         5.5851319855        9.0039646259       29.2701690927
  C         5.7060847394        8.0522274820       31.2072591684
  H        -5.6976467671        8.7823999506       25.1806506831
  H        -6.7417494004        9.1932307471       26.5122745501
  C        -6.9241641504       10.5956056025       25.2021291058
  C        -2.5901681806       16.0172212963       35.4442459746
  S         4.8115502909       10.0942046460       11.3474201066
  C         4.2075986901        6.9308823228       11.5024262581
  H         5.5121388344        8.1370500964       32.2349659719
  H         5.0451283895        7.2941724376       30.7972141109
  C         7.0342793930        7.3695877609       31.2761963835
  H        -6.5340985074       11.2223649717       24.3213126777
  H        -7.1881284948       11.3750350572       25.9395933563
  C        -8.2327321022        9.9208328359       24.7920376570
  H        -2.2076682922       17.0246128452       35.5405228705
  C        -3.1799522637       15.6231794429       36.6169666330
  H         4.9962330312        7.0779260671       10.7766749750
  H         4.3608477348        5.9390435273       11.8600247517
  C         2.8042534992        6.8802560368       10.8462786717
  H         7.2413889734        7.4274574954       32.3082557189
  H         7.7393487999        7.9194654285       30.6503744082
  C         6.9597371743        5.9857572642       30.7140347232
  H        -8.4728473193       10.5882461059       23.9745421657
  H        -8.0274978769        8.9453754231       24.3185146753
  C        -9.3214062546        9.8747409771       25.9265679108
  S        -3.8760084386       14.1817198998       37.0607317604
  C        -3.3293502225       16.6987677179       37.6053135352
  H         2.1296897154        6.2719537475       11.4619047569
  H         2.3805256172        7.8960805801       10.6369146205
  H         2.8139956890        6.3650046799        9.8708506051
  H         8.0035452831        5.5594461371       30.8617841297
  H         6.7430022348        6.1855109109       29.6721991477
  H         6.2967911695        5.3124805442       31.1436598880
  H        -8.8425020945        9.5950017172       26.8451900223
  H       -10.2258759889        9.2655500136       25.7096396461
  H        -9.6386235898       10.8902825269       26.0728233403
  C        -4.1686830641       14.9451055052       38.6527396246
  N        -3.9321082467       16.2642486901       38.6698829658
  O        -2.9302053227       17.8280384599       37.4588462377
  S        -4.8178345322       14.0484869463       40.0448875556
  C        -4.0747541680       17.0842202955       39.8427111656
  H        -4.1851226722       18.1308716987       39.6163403991
  H        -5.0496346203       16.8217958795       40.3625192136
  C        -2.8425611632       16.9298378277       40.7702894649
  H        -2.8136313149       17.8398762052       41.4923469481
  H        -2.8371112033       15.9799597460       41.3285023828
  H        -1.9149021908       16.9160936309       40.1179030747
