352
 i =    14500, time =    14500.000, E =        24.4930203276
  H        12.2137855144        6.8599644633       32.8919717654
  C        11.5507162939        6.0218816281       32.6199052466
  H        12.2659735677        5.2191699186       32.3385010994
  C        10.5352013074        6.1546637458       31.5101842000
  C        10.9708972314        5.5654567571       33.9207020229
  C        11.0857135413        6.1782314471       30.0507508386
  H         9.5676890070        5.6231920947       31.5654941448
  H        10.1571848301        7.1037704687       31.5347969746
  H        10.9670357962        4.4531927324       33.9810786205
  H        11.5605769965        5.9559576983       34.7839110305
  H         9.9417461867        5.8960650363       34.1546158931
  C         9.9961840715        6.3611614677       28.9911922235
  H        11.6234261488        5.2539635217       29.7763702487
  H        11.7225635567        7.0996609061       29.9857089220
  C        10.4652089480        6.2239564983       27.5094271655
  H         9.1897500553        5.6856937490       29.3014986219
  H         9.4959794164        7.3375248601       29.0684862330
  C         9.5663608534        5.3926823318       26.6275267129
  H        11.4643909555        5.7782960086       27.6232627365
  H        10.7063784252        7.1648818771       27.0544309149
  C         8.2302846170        6.0664904297       26.3975365334
  H         9.9458146916        5.1114515428       25.6644134544
  H         9.4457909908        4.4289033021       27.0994011211
  C         7.1857228544        5.2292925004       25.6394535674
  H         7.6716592343        6.1728179345       27.3397570270
  H         8.3446099110        7.1174076695       26.1952574863
  C         6.8439263447        3.9268519897       26.3389262787
  C         7.7514224272        4.4313683340       24.4759437016
  C         5.9255079387        6.0276832431       25.3862633784
  C         7.1517663037        2.7886442873       25.5726920760
  C         6.2867314272        3.5951538210       27.5294100867
  C         7.7148129379        3.0982461766       24.3752678456
  C         8.2728417558        5.0946021412       23.4051208369
  H         6.2489482252        6.8891903492       24.8622855852
  H         5.5157872961        6.4108781949       26.2720519009
  C         4.8238105081        5.2802915333       24.6600730838
  S         6.7573101522        1.3477320389       26.3639938860
  C         6.2962487296        2.2347721871       27.7464714821
  H         5.8145974801        4.4182840505       28.1207470629
  C         8.1916442010        2.4489924517       23.2585256013
  H         8.3688279089        6.2186086572       23.3620149104
  C         8.6642254441        4.4797655985       22.2538817230
  H         5.0114600037        4.9699774789       23.6309152975
  H         4.7044104756        4.3157166321       25.1880374593
  C         3.4395379961        6.1336136310       24.4795337985
  C         5.8849202965        1.5550862409       29.1058959045
  C         8.6857759341        3.0954355003       22.1439833053
  H         7.9819188640        1.3763907296       23.2792126200
  C         9.0707739177        4.8968393777       21.0252453269
  H         2.7757725177        5.5478435066       23.7863833268
  H         3.6209721441        7.1465812369       24.1312300913
  C         2.5415785063        6.2503166211       25.7658700631
  C         5.8779628145        0.1309624614       29.3579317475
  C         5.3531548751        2.4008403128       30.2279223554
  C         9.0526107502        2.4528785572       20.8576843098
  C         9.3088898402        3.8516136861       20.2079789072
  S         9.2625614642        6.3796708329       20.1732889660
  H         1.6448855142        6.7870813269       25.6382263049
  H         3.1603454432        6.7860806841       26.5248964299
  C         2.2377662028        4.9960896083       26.5675508398
  N         6.0343891249       -0.8816728400       28.3989891994
  C         5.6751255377       -0.4306756093       30.6175257255
  C         5.1329326889        1.8640903122       31.5019134390
  H         5.2659276028        3.4456299086       30.1859659715
  C         7.8917539686        1.5993324105       20.1475492384
  C        10.4146834536        1.6353202663       20.9158448732
  C         9.5873307703        4.2087737785       18.8836346402
  C         9.6467370044        5.5478531007       18.7021373651
  H         1.6227252558        4.3677821953       25.9069210100
  H         3.1661891002        4.4598014822       26.7110874806
  C         1.6643745144        5.2173984851       27.9625431508
  S         5.9446596299       -2.3250995343       29.1593811076
  N         5.7477965081       -1.8253037209       30.6958047277
  C         5.2699500215        0.4159584356       31.6868622792
  H         4.7791443820        2.5673324856       32.2772874711
  H         7.5608543679        0.7746095556       20.7595634740
  H         8.3151319257        1.1053244698       19.2535700949
  C         6.6963692591        2.4705006547       19.7298791746
  H        10.6789419961        1.3723404198       19.8879225630
  H        10.2006550065        0.7333350261       21.5166558109
  C        11.5885074918        2.4674450699       21.5071855296
  H         9.6698901000        3.4794493096       18.1398568710
  C         9.9452566407        6.3557017375       17.4408723206
  H         0.9224597734        4.5107628887       28.2948845422
  H         1.2527426270        6.2508367552       28.0542041217
  C         2.7800545380        5.1090148507       29.0139502223
  C         4.9740711414       -0.2399874864       32.8862173302
  H         6.8469385846        3.2700086746       18.9422937850
  H         6.4041280653        3.0737588353       20.6188639929
  C         5.5133461233        1.6150750736       19.2156617832
  H        11.4020538073        2.7385423110       22.5649456620
  H        11.6717155547        3.4331369918       20.9747282448
  C        12.8196011180        1.6105268931       21.3616243842
  C        10.0192860155        7.7563870876       17.2872651835
  C        10.1614973893        5.6052796877       16.1081313469
  H         3.3520043462        4.1818941915       28.9866608635
  H         3.5134039161        5.9869344457       28.7905884842
  C         2.1950234020        5.3832757398       30.4354498837
  H         5.1471471036       -1.3014870955       32.8192548218
  C         4.8051326556        0.2087913996       34.1495319658
  H         5.2356519828        0.9381834405       20.0311100792
  H         5.8777121615        1.0169882223       18.3279908323
  C         4.3647320787        2.4679375838       18.6868790235
  H        12.7637807611        0.9555846539       22.2262271795
  H        12.8102616145        0.9985411405       20.4594485194
  C        14.0637515515        2.5140766189       21.3478278555
  N         9.7330226511        8.6386775959       18.3130366821
  C        10.2610022828        8.4333578578       16.0402675135
  C        10.5208393710        6.2623814083       14.9261532535
  H        10.0482912410        4.5175177584       16.1159995417
  H         1.6181432970        6.3010551931       30.4931076833
  H         1.4464997382        4.5901171031       30.5432308621
  H         3.0176742114        5.2509038583       31.1197328201
  S         4.4291196535        1.8277780483       34.6817777120
  C         4.6883168773       -0.8090861767       35.2016786051
  H         4.5222444754        3.4646037749       19.2243604542
  H         4.5759197753        2.6353892220       17.6565985402
  C         3.0624582791        1.7106792011       18.8321928949
  H        13.9496378076        3.4301431045       20.7484631763
  H        14.8523708233        1.8812172699       20.8919265994
  C        14.6181334642        2.8950057644       22.7198608478
  S         9.8375326370       10.1826662811       17.7096707905
  N        10.1711216995        9.8419618764       16.1539767064
  C        10.5101495210        7.7136448746       14.8443815751
  H        10.6848480103        5.6522082969       14.0689744476
  C         4.2067078259        1.0792687089       36.3083077151
  N         4.2283785918       -0.3078855885       36.3789625723
  O         4.6332599184       -2.0393838076       34.9996178020
  H         2.1657169013        2.3594899283       18.6775275530
  H         3.0163376942        1.3176978571       19.8418737977
  C         2.8406837105        0.6181735484       17.7784775317
  H        15.2759270474        3.7026892542       22.5784293676
  H        13.7698214081        3.3122130801       23.2613346983
  C        15.1483572729        1.5983279099       23.3912524080
  C        10.7782509706        8.4708752217       13.6712194063
  S         3.8943484179        1.8979932264       37.8364980341
  C         4.0901438990       -1.2621084332       37.4551516730
  H         2.5020707259        1.1466466593       16.9299692162
  H         3.8677862378        0.2077082938       17.5856056398
  C         1.8938233340       -0.5864653855       18.0733016562
  H        15.1816711863        0.7766926326       22.6786682725
  H        14.5392809003        1.2546288184       24.2024521127
  C        16.5634425186        2.0013916111       23.7365317426
  H        10.3581310049        9.4621528047       13.6114758125
  C        11.3152273318        8.0229854559       12.4477210594
  H         3.3646476774       -0.8162040282       38.1220664064
  H         3.6381960535       -2.2162220206       37.1513505414
  C         5.4062687947       -1.3710603356       38.2101730115
  H         0.9190389390       -0.3274822408       18.2038176815
  H         2.2829941883       -1.0493489190       19.0012967267
  C         1.9898631643       -1.5426842175       16.8728329828
  H        16.3685083782        2.8889614464       24.3872524467
  H        17.0648797026        1.3409980909       24.3285955687
  C        17.5766384255        2.2605672921       22.6209791956
  S        11.9455963737        6.4457244695       12.0887696794
  C        11.4439829688        9.0025275032       11.3396093286
  H         5.2068904458       -1.4486476259       39.2630116006
  H         5.9206522978       -2.3477285068       38.1191766764
  H         6.1861461613       -0.6121668143       37.9497241560
  H         2.0888129542       -0.9714330976       15.9620817378
  H         1.0869083903       -2.1138885545       16.8715955494
  H         2.7888575735       -2.1761626667       16.9386196656
  H        18.5081679439        2.3895663283       23.1310813866
  H        17.3907549507        3.1904588758       22.1552396141
  H        17.5910686826        1.5781318410       21.7551919086
  C        12.4500498889        7.1668684822       10.5670442329
  N        12.1608066343        8.4605282683       10.3434186354
  O        11.0932079687       10.1579850699       11.3855054810
  S        13.1412656908        6.3332971695        9.2544796496
  C        12.3215926260        9.1924260730        9.0917265941
  H        12.5746108496       10.1596493288        9.4078739464
  H        13.1871655631        8.8227686363        8.5083470265
  C        11.1407488073        9.1091738103        8.0929524176
  H        10.2631968680        9.2241867752        8.6769367329
  H        11.2479949066        9.9454821112        7.3847500369
  H        11.1003402290        8.1399827100        7.6104687668
  H        -2.2582424022       15.0086577647       16.5040699563
  C        -2.6125920141       14.0144075460       16.4815479633
  H        -3.6529038863       13.9480426824       16.8065051154
  C        -1.9934111623       13.2933110611       17.6690569578
  C        -2.5748456987       13.3547812589       15.1442022144
  C        -2.6575729159       13.6932800692       18.9907191464
  H        -1.9190732282       12.2104325585       17.5936383842
  H        -1.0395843243       13.7554614542       17.6956792171
  H        -2.9781284808       13.9402382946       14.2709134213
  H        -1.5651927901       13.0449256299       14.9734051755
  H        -3.1631369820       12.5000187433       15.0814161205
  C        -1.6116763835       13.7452965917       20.0772405982
  H        -3.4090145728       12.9433348351       19.2389463303
  H        -3.1463968075       14.6158927323       18.7757096695
  C        -2.2242618526       13.5569769766       21.4603835793
  H        -0.7149262063       13.0570982198       19.9187698855
  H        -1.0146647368       14.6499544000       19.9945748418
  C        -1.2363558243       12.7503001011       22.3573902259
  H        -3.0231417434       12.8903075516       21.2408640207
  H        -2.6859410363       14.4433161810       21.9867392969
  C        -0.0962758139       13.6319982342       22.8641187590
  H        -1.8745138808       12.4664698464       23.1887094381
  H        -0.9412170394       11.8189433224       21.8755204261
  C         1.1043404724       12.9150148148       23.6077762150
  H         0.2673779074       14.0069723519       21.9360393831
  H        -0.4765538985       14.4112587190       23.5036740009
  C         1.4910528081       11.6024695848       22.9365371627
  C         0.5657183400       12.1816907607       24.7841905531
  C         2.3079631511       13.8353940955       23.8336187579
  C         1.0920820042       10.4858858283       23.6324716537
  C         2.0704492053       11.2039321719       21.7633431124
  C         0.5779170917       10.8572902461       24.8128662354
  C         0.0789186476       12.8330437326       25.9098355860
  H         2.4674966018       14.3385078387       22.8775187949
  H         2.1696134948       14.7581873337       24.4591955067
  C         3.6053621847       13.1159767433       24.1722896801
  S         1.5408934882        8.9984003314       22.9283849696
  C         2.0312716048        9.9008535352       21.5099305221
  H         2.4316820279       11.9498099369       21.1390289165
  C         0.0914143892       10.2343534162       25.9412331578
  H         0.0334559658       13.9394899597       25.8661634255
  C        -0.4491380387       12.2600258433       27.0271732119
  H         3.9105052555       12.4370093408       23.3573595174
  H         3.3680799095       12.4400949260       24.9778529412
  C         4.7863721380       13.9754814590       24.4691005953
  C         2.5189672034        9.2029292169       20.2562043354
  C        -0.3865683847       10.8914757883       27.0897466383
  H        -0.0243642194        9.1628088244       25.8982259464
  C        -0.8542994974       12.5683877334       28.2556126635
  H         5.4168501203       13.4832703677       25.2951321898
  H         4.4300677386       14.9155014012       24.7919836461
  C         5.5786195733       14.3148906852       23.2222702535
  C         2.5089047596        7.8261805145       20.0332735655
  C         2.9663843748       10.0975697492       19.1273582345
  C        -0.8399037551       10.1043408156       28.3351813844
  C        -1.1696106170       11.4692307210       29.0600151997
  S        -1.0598643513       14.0874457190       29.0884012782
  H         6.2449995665       15.2133417792       23.3889499657
  H         4.8393478696       14.5756685197       22.4623479053
  C         6.5208073219       13.1782883581       22.6810775449
  N         2.1594314657        6.7921621759       20.9613136379
  C         2.7648128990        7.2562623393       18.7803939263
  C         3.1908864642        9.5206021882       17.8636173033
  H         3.1344158439       11.1555439617       19.2466379851
  C         0.3793796000        9.2740443298       28.9056424417
  C        -2.0814172798        9.1939194053       28.0960605856
  C        -1.5773684917       11.8893778002       30.3249695805
  C        -1.4701040183       13.2429259994       30.5232077094
  H         7.4418944712       13.2136878715       23.2716312948
  H         6.0956100951       12.2687626194       22.8523361652
  C         7.0944864962       13.4013278025       21.3183315192
  S         2.3822680131        5.3676513760       20.2359259925
  N         2.7330841194        5.8548647885       18.7527517047
  C         3.0523581600        8.0935361201       17.6089779799
  H         3.5458341400       10.1542287222       17.0494515082
  H         0.6311039730        8.5882489398       28.0508527837
  H         0.0210203181        8.5101227252       29.6036066218
  C         1.6051093522       10.0686368109       29.4152299659
  H        -1.9014112629        8.4456973255       27.3677764602
  H        -2.3420444564        8.7150084759       29.0246730628
  C        -3.3366180446       10.0946427318       27.7792568458
  H        -1.7696863172       11.1650854080       31.0213593108
  C        -1.7114498166       14.0084330102       31.7968269594
  H         7.7995322341       12.5902026927       21.1991182970
  H         7.7014928282       14.2866995164       21.3322001785
  C         6.1026519758       13.4438589267       20.1146380045
  C         3.3078155395        7.4552235432       16.3439857362
  H         2.0390063350       10.4057397363       28.4754681284
  H         1.3236180088       10.8652201402       30.0540649544
  C         2.6417194709        9.1779766762       30.0608570573
  H        -3.2173466900       10.5956047544       26.8100230151
  H        -3.6661197467       10.7769115228       28.5572764634
  C        -4.6455381550        9.2344098323       27.7034679484
  C        -1.6642142399       15.3558786259       31.8818281045
  C        -1.9235849144       13.2881396457       33.0832271920
  H         5.4454205714       12.5446836628       20.2306134453
  H         5.4695502615       14.3328708256       20.1755349824
  C         6.9441699657       13.4575578957       18.7780997066
  H         2.9655799832        6.4701324807       16.4011208303
  C         3.6667695265        7.9033739113       15.1002575350
  H         2.9342082116        8.3648924499       29.4316114592
  H         2.2593265017        8.6798485851       30.9200417363
  C         3.8452095941       10.0090575435       30.4459657913
  H        -4.5822307017        8.5559720936       26.9098303115
  H        -4.6085898008        8.5994807818       28.6247362050
  C        -5.8758966564       10.1270259187       27.4828452703
  N        -1.4656117299       16.3113438867       30.8644547987
  C        -1.8767625960       16.0088204238       33.0840427771
  C        -2.1524672961       13.8925601997       34.3200969830
  H        -1.9083861045       12.2317137371       33.0476707781
  H         6.2547761845       13.3916851395       17.8401467929
  H         7.5801604909       14.3674362497       18.7868004806
  H         7.6304060291       12.6586688276       18.8500230563
  S         4.0286770665        9.5051496216       14.5579807418
  C         3.6982260483        6.8776907259       13.9987116934
  H         3.9368825929       10.9927828912       29.8636987670
  H         3.5335093690       10.2769291609       31.4776994437
  C         5.1743860673        9.2735521643       30.4700288032
  H        -5.5989196064       11.0209965632       26.8376365110
  H        -6.2544372782       10.5345167135       28.3912534269
  C        -6.9857944315        9.3425280278       26.7847712512
  S        -1.6315201014       17.8095254905       31.4105232121
  N        -2.0626184210       17.3896244161       32.9292595932
  C        -2.1729717930       15.4328562090       34.3282717496
  H        -2.3898424146       13.3221527005       35.1405912705
  C         4.1675323236        8.7970291150       12.9422242203
  N         4.1585051506        7.4495523843       12.8629563668
  O         3.4462415451        5.6840824701       14.2077974897
  H         5.9305645096       10.0807837069       30.5854908155
  H         5.4336383704        8.8149338622       29.5033446434
  C         5.2720405270        8.0998761725       31.4857464452
  H        -6.5798562727        9.1710446082       25.7723547101
  H        -7.2985651915        8.3981137312       27.2211022000
  C        -8.0707160630       10.3137221094       26.5471783414
  C        -2.5279188896       16.2207378916       35.4699449699
  S         4.5975404870        9.5904189850       11.4729062085
  C         4.2760634682        6.6386794139       11.6497045498
  H         5.8331250789        8.3811580885       32.3849144617
  H         4.2659731560        7.8223084323       31.8527730478
  C         5.8910418520        6.8228510251       30.9280770904
  H        -7.5354461472       11.1564870246       26.1820723387
  H        -8.5328401722       10.8003645170       27.4713727902
  C        -9.2468725505        9.7569900028       25.6712540770
  H        -2.3804671721       17.2493826949       35.3584462757
  C        -3.0723458460       15.8903813631       36.7130190467
  H         5.1476323812        6.9815589725       10.9665082574
  H         4.5875081485        5.6209301077       11.8925519648
  C         2.9877928914        6.6258035454       10.8104731287
  H         6.6924459894        7.0030564694       30.2134691038
  H         5.1015519685        6.1310294635       30.4734605346
  C         6.4516257310        6.0169834259       32.0631708570
  H        -9.4429889095        8.7799928642       26.1735753681
  H       -10.0827598029       10.4039793275       25.8507191517
  C        -8.7706319407        9.6326666876       24.2515058037
  S        -3.7096911122       14.3973512615       37.2283626559
  C        -3.2834473714       17.0042792649       37.6601960245
  H         2.9186260654        5.6635374526       10.2330391008
  H         2.1058242533        6.8049807950       11.3187725210
  H         3.0591075222        7.3738292918       10.0739774238
  H         7.4530843164        6.3453871416       32.3848586832
  H         6.7031624603        5.0363169894       31.7815996509
  H         5.7633768321        5.8121976530       32.9247578385
  H        -8.2505977394        8.6498725618       24.1755852153
  H        -8.0089382066       10.3550213953       23.9903560964
  H        -9.6139807427        9.7451809518       23.5875790063
  C        -4.0253626761       15.2295471762       38.7205553603
  N        -3.9267697253       16.5673686701       38.7387314395
  O        -2.8270743452       18.1333217793       37.5003620124
  S        -4.7370602413       14.3878783328       40.1546147759
  C        -4.1368719757       17.4185432876       39.9147979009
  H        -4.2067474042       18.4383608312       39.6006779021
  H        -5.1416891689       17.2766079885       40.4150689002
  C        -2.9376628861       17.2500582693       40.8593832170
  H        -2.7746669178       18.1966430295       41.2769343155
  H        -3.2012194680       16.5224306106       41.6154418254
  H        -2.0219759432       16.9885705394       40.3172795785
