352
 i =    33800, time =    33800.000, E =        24.6096255936
  H        11.8310289015        7.0923609173       32.4808353059
  C        11.6322010151        6.0728090728       32.2691338949
  H        12.5277002441        5.5976316682       31.8602482925
  C        10.7336130723        6.1032266686       30.9668055841
  C        11.0105352697        5.4268424660       33.6014412664
  C        11.4427349592        5.8494632115       29.6243809319
  H         9.8784836121        5.3608194652       31.0619129446
  H        10.2015822304        6.9647502949       31.0015291071
  H        10.8617660157        4.3427201563       33.4065450561
  H        11.5788505851        5.5299485519       34.5023706148
  H        10.0207617584        5.7965415870       33.8186744567
  C        10.4834327664        6.0296672957       28.4416344116
  H        11.9730887810        4.9127110945       29.4181105097
  H        12.2410115080        6.5290255148       29.5530113374
  C        10.9792991714        5.5857062448       27.0586432816
  H         9.5212947981        5.5896323136       28.7129422724
  H        10.2455115369        7.1299629730       28.4127770447
  C         9.7903251093        4.9492570787       26.3396695024
  H        11.9063643551        4.9564102971       26.9945036232
  H        11.1422440955        6.4696005123       26.4758310620
  C         8.6147101367        5.9532218397       26.0249743789
  H        10.1473201637        4.3111966731       25.5316715969
  H         9.3873900341        4.1951158028       27.0203664651
  C         7.4561164374        5.2271240593       25.3083601169
  H         8.2581682013        6.4564679126       26.9455435519
  H         8.8763277377        6.8190486607       25.3874272102
  C         7.1719902432        3.8615497511       25.9422465562
  C         7.9195208914        4.6068440695       24.0635028743
  C         6.2639982531        6.0915453241       25.0949619499
  C         7.4414901566        2.7860711475       25.1422932089
  C         6.7154204437        3.4527113936       27.2113771261
  C         7.9641886888        3.2613628118       23.9174751366
  C         8.3561660276        5.2751136846       22.9723565288
  H         6.5511890079        7.0075533962       24.5371805394
  H         6.0160511495        6.4883784022       26.1275088401
  C         5.0579486491        5.4096085472       24.4591740123
  S         7.2505584076        1.2733102289       25.9119342837
  C         6.6382436954        2.1485053651       27.3361607621
  H         6.4804679878        4.1683165328       27.9487372510
  C         8.4073270529        2.6290102267       22.7892329074
  H         8.5056796395        6.3887407816       23.0380780485
  C         8.8546927045        4.6673744793       21.8331941426
  H         5.2632533563        4.8663554931       23.5663230769
  H         4.7031189603        4.5602879144       25.0639410040
  C         3.8573490734        6.3141878026       24.3478570385
  C         6.2599868602        1.4193345057       28.6053086419
  C         8.8893388164        3.2946162873       21.6980093843
  H         8.3724756103        1.5849901172       22.8362912399
  C         9.3446602457        5.1021025652       20.6375361312
  H         3.2978983411        6.0706490688       23.4231907168
  H         4.2368934783        7.2779980164       24.0081126484
  C         3.1519326664        6.4953684308       25.7311549302
  C         6.1814581762       -0.0131820133       28.7358735697
  C         5.8678950170        2.2853675574       29.7869243575
  C         9.4137195078        2.6607416241       20.4854089310
  C         9.6981543051        4.0507523506       19.8499788412
  S         9.4133952719        6.5892182965       19.7696251019
  H         2.4396050192        7.3401859797       25.5997079090
  H         3.9142885159        6.7887293494       26.4169176151
  C         2.4391911055        5.2040054118       26.1340298754
  N         6.4890986559       -0.9468157260       27.7652288110
  C         5.9287352244       -0.5917043334       29.9656596980
  C         5.5349254817        1.6674485154       31.0145517040
  H         5.7109798802        3.3424908772       29.8332353173
  C         8.2697453495        2.0602478093       19.6489350129
  C        10.6100064179        1.7329125722       20.7373160675
  C        10.0838594981        4.4351615640       18.5196280620
  C         9.9964828183        5.7613493216       18.3482835207
  H         1.6358809936        5.0613319718       25.3786960386
  H         2.9814485282        4.2090329749       26.1698670358
  C         1.5978583911        5.3845316418       27.4432343994
  S         6.2061354360       -2.3902080477       28.3734846673
  N         6.0733097194       -1.9837896568       29.9641565040
  C         5.6070331971        0.1426058245       31.1198960352
  H         5.2872694589        2.2944096664       31.8209898428
  H         7.9197691568        1.2330710249       20.2915108598
  H         8.5557694094        1.7530344837       18.6776067211
  C         7.0455124620        2.9050199709       19.2669808252
  H        10.7382901975        0.9823577921       19.9065649193
  H        10.4241322202        1.1372225843       21.6624413898
  C        11.9220889180        2.5346238549       20.9868334693
  H        10.4214060776        3.6555978116       17.8108353950
  C        10.2019713871        6.4856514276       17.0424868132
  H         1.3715233026        4.5623832398       27.9688542265
  H         0.6341807313        5.8783957581       27.2215933481
  C         2.2240738056        6.2699924271       28.5125499042
  C         5.3371175752       -0.5499691263       32.3418213586
  H         7.3855467020        3.8426563486       18.7214854233
  H         6.5302099136        3.2494510228       20.1459977743
  C         6.0492435417        2.1636608069       18.2753446839
  H        11.6606764426        3.2594568303       21.8339995746
  H        12.1465746141        3.0000882183       20.0213702037
  C        13.0978599740        1.7691576278       21.4912275605
  C        10.1441176524        7.9249314799       16.8506341050
  C        10.4305315267        5.6864441336       15.8360681455
  H         2.4108091394        7.2500523328       28.1121998235
  H         1.6204216251        6.3533324713       29.3990058865
  C         3.6340472796        5.7512029572       28.9464389227
  H         5.4498093451       -1.6297632795       32.3783977605
  C         4.9254178608       -0.1567346282       33.5968087301
  H         5.6878789709        1.2633087999       18.7763426252
  H         6.6395506852        1.7278752763       17.4480662540
  C         4.9017296262        3.0632130343       17.6837033664
  H        12.8848211749        1.4018236612       22.4496743933
  H        13.2426012004        0.9213403819       20.8843540645
  C        14.3736448675        2.5603469233       21.4922623566
  N         9.9111433854        8.8738871350       17.9027033688
  C        10.4016432078        8.5045806560       15.6303175579
  C        10.5730509779        6.3090928860       14.6036020084
  H        10.3557883336        4.5935104802       15.8176401719
  H         3.7382884672        4.8397617324       29.5725723140
  H         4.1707964952        5.5779511197       28.0343250545
  H         4.2010614415        6.5716314954       29.3387429212
  S         4.5678041953        1.4533957557       34.1129217425
  C         4.8623900751       -1.1782375434       34.7223936085
  H         4.8315225782        3.9212570460       18.2642090968
  H         5.2538034988        3.3620759611       16.6927563092
  C         3.5787035282        2.3268110904       17.7336120265
  H        14.2621999936        3.4214464157       20.8396527806
  H        15.1219621124        1.9150812930       21.0538579848
  C        14.7731967870        3.0740611163       22.8456419877
  S         9.9245029142       10.3371568454       17.2134306514
  N        10.4425400010        9.9214625080       15.7064068200
  C        10.5629750483        7.7671403981       14.4603070081
  H        10.5758046416        5.7474781588       13.6530164934
  C         4.3695042514        0.7592985713       35.7833171105
  N         4.4582194466       -0.6111188892       35.8564114884
  O         5.0279719286       -2.3736813529       34.5168900308
  H         2.7957350608        2.8862772257       17.2338483654
  H         3.3561786887        2.0925025721       18.7858766194
  C         3.6457835603        0.9315109700       17.0881615989
  H        15.4593085115        3.8516168205       22.6096622366
  H        13.9343327327        3.6600708478       23.2606495289
  C        15.3488883367        2.1563283038       23.8640814936
  C        10.7042584772        8.5512522558       13.1763166386
  S         3.9248081579        1.5559307193       37.2444148608
  C         4.3474490725       -1.4862279857       37.0377179832
  H         3.2421549007        1.0920966259       16.1499112836
  H         4.6556047768        0.7315390643       16.8803825144
  C         2.8786258836       -0.1542109939       17.7761414057
  H        14.9452122667        1.1125895587       23.8664526973
  H        15.0124071515        2.4746596346       24.7892437780
  C        16.9002993783        2.1141001238       24.0364340093
  H        10.3054922602        9.5220046099       13.2423875015
  C        11.3071498175        8.2444593123       12.0111417248
  H         3.5472421663       -1.0505283623       37.6607943387
  H         3.9083471550       -2.4529448277       36.8490998471
  C         5.6387701277       -1.5727557308       37.7747920673
  H         1.8982130364        0.2597278359       17.9952703118
  H         3.3050017898       -0.3701518217       18.7181645178
  C         2.7808838134       -1.4361303431       16.9208482715
  H        17.3259242212        2.9948096318       24.5286343087
  H        17.0925947996        1.2989407640       24.7830042046
  C        17.8630578523        1.8992550305       22.8101957188
  S        11.9592404139        6.7062063837       11.6719116046
  C        11.2834499914        9.1882275169       10.8733092520
  H         6.1645997413       -0.6461313064       37.9374140658
  H         5.5096844191       -1.8445908021       38.8120069751
  H         6.3606684833       -2.3407734332       37.4382084454
  H         2.1870260088       -2.2018358174       17.4045762490
  H         3.7970906454       -1.8505971505       16.6976927049
  H         2.1620050310       -1.2046299708       16.0524740938
  H        17.3005036729        1.3476709855       22.0355682503
  H        18.7096172586        1.3480640575       23.1349494673
  H        18.1416875120        2.8817937884       22.4300669221
  C        12.4348677251        7.4823242264       10.1436034471
  N        12.0750051027        8.7664096811        9.9086249757
  O        10.7758875719       10.2943444096       10.9185643230
  S        13.4088324987        6.7711277411        8.8998963147
  C        12.3012084936        9.5695283371        8.7011513793
  H        12.3742239802       10.6814474302        8.8819332414
  H        13.2679229841        9.4394073318        8.3719638124
  C        11.2641901399        9.2670297478        7.5568898374
  H        11.4246237423        8.2873041890        7.1340295323
  H        10.2662071304        9.3497634071        7.9626288817
  H        11.3993504866        9.9226020765        6.7048953689
  H        -2.8240846535       15.0482468200       17.1351228419
  C        -2.3374818660       14.0633907596       16.9238947044
  H        -2.7773707130       13.1874410647       17.3070605085
  C        -1.0013519844       14.3074630205       17.6235276721
  C        -2.1761445759       13.8151475027       15.4588215770
  C        -0.9713971130       14.4943407390       19.1303216392
  H        -0.3763679665       13.3993876692       17.4997308103
  H        -0.5585974767       15.1888475984       17.1468033152
  H        -1.7848163007       12.7851133885       15.2653943671
  H        -3.1451040987       13.7293354758       14.9989908764
  H        -1.4432582892       14.4724248746       14.9387463456
  C        -1.5828067704       13.3355274333       19.8906508106
  H        -1.6008764118       15.3577633859       19.3569133594
  H         0.0428286445       14.7341608507       19.2809941827
  C        -1.9544436241       13.8340058181       21.3162284518
  H        -2.4564339094       13.0193460898       19.4595410926
  H        -1.0580740438       12.4670854453       20.0178168143
  C        -1.1241670280       13.3009359579       22.4834963551
  H        -2.9549900954       13.4244426259       21.4026567979
  H        -2.1017213038       14.9444343505       21.2823602690
  C         0.2167414494       14.0946270337       22.7616442973
  H        -1.6599650844       13.3304420000       23.4484220237
  H        -0.7926706972       12.2450465163       22.2663399965
  C         1.4422531700       13.3511176989       23.3680305943
  H         0.5220362981       14.3743180838       21.7742735830
  H        -0.0926004802       15.1021132281       23.1824726988
  C         1.7424745143       12.0497068115       22.6657069225
  C         1.0633929396       12.6107223875       24.6161570414
  C         2.7394423711       14.1668137680       23.4756640024
  C         1.4478510030       10.8964354241       23.4629919450
  C         2.0474404194       11.7002159263       21.3125153101
  C         1.0209559974       11.2395993709       24.7207555282
  C         0.5541729311       13.2466732519       25.7338765071
  H         3.0621178802       14.5717300525       22.5015848359
  H         2.6308715053       15.0943884672       24.0714478588
  C         3.8956269278       13.3766110636       24.1383180211
  S         1.8164832766        9.4296187670       22.6258609931
  C         2.1710915039       10.3042904999       21.2102355775
  H         2.2003104158       12.4182283829       20.5788946375
  C         0.5640394547       10.6164265507       25.8907899268
  H         0.5228423021       14.3546832005       25.7928211970
  C         0.0945064025       12.6605552370       26.8779566416
  H         4.0643757429       12.4943007963       23.6026891531
  H         3.7285380613       13.1767110886       25.1917544617
  C         5.2086324933       14.1316170117       24.1988231964
  C         2.6534761571        9.6143851170       19.9523508789
  C         0.0919904591       11.3423728270       26.9735205808
  H         0.6063476405        9.5430699536       25.9393018554
  C        -0.4202947649       13.0416604132       28.0858741821
  H         5.8913904358       13.5250655294       24.7771168799
  H         5.0739524222       15.0709432496       24.7190690915
  C         5.8098914850       14.5961337169       22.8591288495
  C         2.6440026596        8.2022959605       19.6872389868
  C         3.2304680803       10.4647131656       18.8498240126
  C        -0.3595744486       10.6188253034       28.2141869300
  C        -0.7028355521       11.9435365809       28.8850178767
  S        -0.7900512080       14.5410892317       28.7286551566
  H         6.6948447358       15.2682532565       23.0302363769
  H         5.1212525064       15.2849210208       22.3947328661
  C         6.2186262515       13.4211537124       21.9713732325
  N         2.4011816852        7.1809007976       20.6394802101
  C         2.9077079048        7.6959193599       18.4201425694
  C         3.5147045712        9.9205244031       17.5801267539
  H         3.4199287227       11.5592434734       18.9411292537
  C         0.7285332768        9.8246525257       29.0129472227
  C        -1.6147988002        9.7680228550       28.0435381802
  C        -1.0185039936       12.3282926801       30.1390448709
  C        -1.2379225538       13.6862574090       30.2390529432
  H         6.6766826240       12.6681063244       22.5245109272
  H         5.3650300874       12.8857552260       21.6157908651
  C         7.2811453140       13.5898454377       20.8969259233
  S         2.5247382224        5.7460408448       19.8663450749
  N         2.7237777443        6.3018637752       18.3416368020
  C         3.3724510773        8.3913770994       17.3540629053
  H         3.8100144134       10.5968248872       16.7320375976
  H         1.1360838443        9.1038723175       28.2656166748
  H         0.2344260022        9.3270505176       29.8291658213
  C         1.8036986101       10.6554063087       29.6439130653
  H        -1.1859814321        8.9323092166       27.4606995229
  H        -1.7785884524        9.2728536090       29.0179171541
  C        -2.7678801387       10.4845301125       27.4638549960
  H        -1.1670244654       11.5753186330       30.9323508366
  C        -1.6208431362       14.3839678438       31.4666799176
  H         7.5461869063       12.6068111485       20.5365142610
  H         8.2418559155       13.9356929868       21.2326472665
  C         6.7659287334       14.4564600997       19.7927426565
  C         3.6238699925        7.7643086299       16.0675791538
  H         2.2932716447       11.2597904716       28.9029067323
  H         1.3110563705       11.2195694260       30.3855711345
  C         2.9429397997        9.8383359377       30.2578420442
  H        -2.6148991766       10.5932073149       26.3840306159
  H        -2.8036635504       11.5166724948       27.7026365474
  C        -4.0513209695        9.7371539178       27.7431648843
  C        -1.7017235074       15.7539116715       31.6396726180
  C        -1.6972214242       13.6240403324       32.7426754733
  H         5.9549446656       15.0268023614       20.0701486216
  H         7.5649180132       15.0575556640       19.3577621727
  C         6.0489539036       13.6224148244       18.7155563890
  H         3.6428331461        6.6979315243       16.1598259926
  C         3.8042727832        8.1254038905       14.7489740762
  H         3.5831978113        9.2336393109       29.5611645655
  H         2.5406879623        9.0964962193       30.9474248436
  C         3.8686349163       10.8196898627       30.9779114378
  H        -4.0319445025        8.7053606925       27.4302152692
  H        -4.2130133971        9.5248134014       28.8254950535
  C        -5.1989880051       10.5245718777       27.0832756299
  N        -1.5197215360       16.7309330834       30.6141665472
  C        -1.8927057640       16.3863933741       32.8591483940
  C        -2.1880958094       14.1898778662       33.9544129727
  H        -1.4067299796       12.4963717241       32.6763892224
  H         5.5248077471       14.2640998478       17.9968128384
  H         6.6579239719       13.0002865579       18.0619710151
  H         5.3511227095       12.9265803795       19.1839698367
  S         3.7219136874        9.7384218271       14.2133250421
  C         3.9100270294        7.0775639736       13.7040267086
  H         3.8223561176       11.8106768231       30.4607237457
  H         3.5463392631       10.9306942164       32.0906209049
  C         5.2850193877       10.2918183658       30.9662618365
  H        -5.0004431853       11.5628442682       27.2085579517
  H        -6.0802238154       10.2685755706       27.6049408969
  C        -5.4172321025       10.0371771478       25.6490281828
  S        -1.7105878395       18.2111837473       31.2325198668
  N        -1.8277177247       17.8257928874       32.7901626816
  C        -2.3231334709       15.6729205516       34.0255516605
  H        -2.2796588822       13.5947417211       34.8489688901
  C         4.0237049713        8.9776217643       12.6233345994
  N         4.0200881760        7.6186484538       12.5223190139
  O         3.9840268259        5.8716074599       13.9631100707
  H         5.9783959753       10.9897343031       31.4786439673
  H         5.5610721089       10.1480567288       29.9284212648
  C         5.5290066069        9.0142570936       31.6630632362
  H        -4.4834492272       10.1851822594       25.2437965339
  H        -5.6471008153        9.0263694723       25.7279541819
  C        -6.3998641964       11.0139901435       24.9764464048
  C        -2.4468955910       16.4025625808       35.2544885556
  S         4.3816920372        9.8029445788       11.1091133229
  C         4.2047397701        6.8671504740       11.3298220472
  H         6.1660951690        9.3110089691       32.5170123954
  H         4.6881040051        8.5976993299       32.2055867975
  C         6.3370109978        8.0439611213       30.8346665266
  H        -5.9372902994       11.3380860295       24.0299511362
  H        -6.0450328994       11.9055532995       25.5194680868
  C        -7.8821508333       10.4496420360       24.8521069786
  H        -2.1109974271       17.4499189824       35.2050151452
  C        -3.0918888815       16.0837628060       36.4544379384
  H         5.0029592008        7.2655952485       10.7067723745
  H         4.6133803772        5.9418919584       11.6932556227
  C         2.8695378848        6.6973469138       10.5566789618
  H         7.2668369692        8.6286762122       30.5542016536
  H         5.9406179983        7.8089573818       29.8334906237
  C         6.7087815841        6.7280963732       31.6075506343
  H        -8.4446572670       11.1277863653       24.2691702195
  H        -7.9474968679        9.4435729750       24.2849442177
  C        -8.5049307262       10.2461102688       26.1482365619
  S        -3.7151461972       14.5368390148       36.9287552956
  C        -3.1472974963       17.0863768297       37.5465432466
  H         2.3390119413        5.7356957129       10.8343951724
  H         2.1267955228        7.4432308524       10.8816912849
  H         3.1324934076        6.7560562805        9.4733617886
  H         7.3589779662        6.1073313604       30.9821931875
  H         5.8661309346        6.1548448060       31.9666783250
  H         7.3507893635        6.9203451469       32.4709784381
  H        -9.5976437611       10.2460029900       26.1493411334
  H        -8.1251741164       10.8709401344       27.0000866690
  H        -8.2267115718        9.2496464262       26.4500932237
  C        -4.1096426871       15.2597999428       38.4997048331
  N        -3.7709553761       16.5617780202       38.6300596251
  O        -2.7928796227       18.2745244274       37.4165774009
  S        -5.0572476013       14.4524056495       39.7054204830
  C        -3.9496698587       17.4114269193       39.7900898142
  H        -3.9308857311       18.4265828478       39.6443469035
  H        -4.9105477481       17.1230851284       40.2435764218
  C        -2.7687099189       17.3963396241       40.7706371911
  H        -1.8477648750       17.4877359682       40.2225127134
  H        -2.7590667681       18.2586254710       41.4191989441
  H        -2.6869781202       16.4553334138       41.2697017905
