352
 i =    73700, time =    73700.000, E =        25.2532117663
  H        10.0986191610        7.2966229701       31.6378720587
  C        11.0305484317        6.8185638630       31.9758635422
  H        11.6785875948        7.7105724287       31.8882674470
  C        11.2727690239        5.7432373882       30.9285174956
  C        10.7941041946        6.2291376801       33.3798678568
  C        11.2823247697        6.2734846139       29.5391404777
  H        12.2786845128        5.2544867725       31.0167119877
  H        10.4954655890        4.9980527343       30.9062691847
  H        10.7541647151        5.1273760089       33.3601144714
  H        11.5779643351        6.5983897537       34.0904111749
  H         9.8601826750        6.6031714696       33.8510076916
  C        11.0162099371        5.2049065188       28.5046663968
  H        12.3793882735        6.5733340383       29.4541092840
  H        10.6565603768        7.1755974955       29.5300884282
  C        11.2161090345        5.5207717898       27.0759618933
  H        11.5111785117        4.2961373404       28.6876459719
  H         9.9741952127        4.8853162541       28.5929778885
  C         9.9654341142        5.0087806482       26.2300652103
  H        12.1672700116        5.0527772142       26.7769164740
  H        11.3708601351        6.5585867341       26.9937167309
  C         8.6645833665        5.8463063423       26.3164953470
  H        10.1684759569        4.9795006763       25.1646465665
  H         9.8123017668        3.9468979874       26.4362474382
  C         7.4222759463        5.1389038126       25.5329181723
  H         8.3841938857        6.0183816768       27.3429517778
  H         8.9906978476        6.7784165276       25.7979562804
  C         7.1191581101        3.7488971752       26.2659045604
  C         7.7977239312        4.4184623016       24.2798165576
  C         6.2421079568        5.9787027373       24.9873691653
  C         7.3615437527        2.6417013273       25.4824030320
  C         6.8076546257        3.3021150330       27.5920169430
  C         7.7499041825        3.0403782856       24.2448628014
  C         8.2728812242        5.0682699763       23.1074384561
  H         5.9189351615        5.6104773453       23.9538154349
  H         6.5740509828        7.0648354147       24.7714519614
  C         5.0082589509        5.9675077657       25.8999141915
  S         7.0571905957        1.0471941767       26.2374085823
  C         6.6276848326        1.9304411395       27.7060748044
  H         6.8316361963        3.9329450597       28.3735390169
  C         8.1243182963        2.4440129178       23.1110981093
  H         8.0771018207        6.0359076396       23.0125631597
  C         8.5894498697        4.4106679843       21.9637648226
  H         4.7961224570        4.9070449900       26.0776938922
  H         5.1542185892        6.3088142339       26.9233815456
  C         3.7861896156        6.3774879096       25.2188096555
  C         6.1184086020        1.3095361269       28.9872601154
  C         8.4718028411        3.0663618310       21.9060275369
  H         8.0141424725        1.3581996840       23.2875673453
  C         8.9412009520        4.7840731037       20.6897273603
  H         3.4375127094        5.6543768737       24.4450386228
  H         3.9546509948        7.2614639944       24.6107765167
  C         2.6737374565        6.6676839679       26.2417481325
  C         6.1163246784       -0.1033151196       29.2447778300
  C         5.6058778259        2.2097515237       30.0218182355
  C         8.6957968904        2.3051619356       20.6046812207
  C         8.9664484127        3.6642495132       19.8935838685
  S         9.2630621332        6.2398816178       19.8425541338
  H         1.9284930345        7.4467639154       25.8962088773
  H         3.0934835131        6.9394988894       27.2245879191
  C         1.8220415445        5.3868845938       26.5692549602
  N         6.4432052313       -1.0722231510       28.3331951974
  C         5.7096828483       -0.5577470794       30.4748364026
  C         5.2769033573        1.7552774194       31.2607102806
  H         5.4559176843        3.2681888089       29.7958687365
  C         7.5093932082        1.6123522303       19.9198508866
  C         9.9569976902        1.4344954340       20.6634193014
  C         9.2945504262        3.9790747941       18.5595742303
  C         9.5344043512        5.3304785110       18.3859295423
  H         1.5762183907        4.9746443423       25.6072924993
  H         2.4014951333        4.6185348984       27.0035132774
  C         0.5268904568        5.7719968839       27.2342039601
  S         6.4128321435       -2.5205029319       29.1059082457
  N         5.8322649455       -1.9364624761       30.5882568355
  C         5.3733107512        0.3034731210       31.5364157639
  H         4.9977096617        2.4652605660       32.0086380925
  H         7.1436948489        0.7830011852       20.5826359819
  H         7.9198355700        1.0997550118       19.0728486988
  C         6.3078441819        2.5239874957       19.5245785665
  H        10.2467222575        1.2225686664       19.6244372409
  H         9.8047890015        0.5466262912       21.1942263482
  C        11.1503979270        2.2301963864       21.1979882088
  H         9.5401395121        3.1730764367       17.8711998009
  C         9.8263087666        6.0044787714       17.0903016182
  H        -0.2309329077        5.4702480464       26.5182658244
  H         0.5350484346        6.8423163373       27.3329032864
  C         0.3785532944        5.1685626648       28.6494022111
  C         5.1459445272       -0.2083171418       32.8398744157
  H         6.5856168656        3.1505806665       18.7321738680
  H         6.1206864910        3.2373694260       20.3562006424
  C         5.0566684032        1.7031006434       19.1521158885
  H        10.9198663394        2.6032055336       22.1698157689
  H        11.3569306958        3.0943702677       20.5247156798
  C        12.4656295863        1.4632209552       21.1814877128
  C        10.0140070130        7.4070433470       16.8609514884
  C        10.0420438598        5.1174294691       15.9524040413
  H        -0.6516468010        5.0592408878       28.8518164764
  H         0.5855605240        4.1650866484       28.4348985828
  C         1.2545172207        5.6650086919       29.7551989279
  H         5.0646161463       -1.3127472621       32.8115857653
  C         4.9406302853        0.3918061268       34.0696097399
  H         4.2652028014        2.4278737865       19.2511703419
  H         4.8871026558        0.8492676285       19.7779849089
  C         5.1766765849        1.3386083989       17.6423536604
  H        12.4132242727        0.5850950925       21.7651613621
  H        12.8712770891        1.1539167784       20.2294704014
  C        13.5235212342        2.3026950341       21.8546474480
  N         9.7905836500        8.3277345546       17.8841595742
  C        10.2602467317        7.9339179010       15.6632075187
  C        10.2872359212        5.6519828620       14.6663083864
  H         9.9849585057        4.0560423740       16.1059861906
  H         1.2587617522        6.7671056577       29.6245193568
  H         0.9058584558        5.4929318154       30.7325620778
  H         2.2675764571        5.1968986454       29.7170203077
  S         4.4949157259        1.9902399269       34.4870100900
  C         4.9986120484       -0.5825126376       35.2121842078
  H         5.4021425021        2.1993117987       17.0604228803
  H         6.0247839178        0.7137651324       17.3744546821
  C         3.7650723152        0.7638698336       17.2172371103
  H        12.9938655788        2.9519909394       22.5169688453
  H        14.0500116182        2.9130237042       21.0590063413
  C        14.6456905830        1.5197125221       22.6178396961
  S         9.8421739730        9.7870445001       17.2443091679
  N        10.2836202674        9.3419760000       15.7818599059
  C        10.4794456179        7.1383888514       14.4829388614
  H        10.4594967585        4.9631182351       13.7736847258
  C         4.4183815800        1.3846345081       36.1507012249
  N         4.7037478642        0.0876061384       36.3379563484
  O         5.2260883696       -1.7958614734       35.1590575171
  H         3.7550882984        0.5002327115       16.1667970546
  H         2.9589503717        1.4818306586       17.3192415065
  C         3.3583938156       -0.4938833219       17.9688471634
  H        14.1089293602        0.8326875269       23.3394777097
  H        15.1998137309        0.8535399363       21.9515150390
  C        15.5536689485        2.5758057982       23.2730575873
  C        10.9209516744        7.8506343564       13.3309793696
  S         4.0704025433        2.5038465456       37.5796979748
  C         4.7701282832       -0.5179737632       37.6972163061
  H         4.1589511095       -1.0747175588       18.2683909010
  H         2.9590197720       -0.1906955653       18.9367993583
  C         2.3480759500       -1.4497027143       17.3344508887
  H        15.0157919908        2.8303879543       24.1659798053
  H        15.7612865876        3.5329267904       22.7043381609
  C        16.8828190758        1.8911523998       23.5462440365
  H        10.9501347508        8.9279358902       13.4140108716
  C        11.4109301188        7.5153917261       12.1083094287
  H         4.1509167722       -0.0259998789       38.4641417559
  H         4.3710098605       -1.5677619247       37.7379439305
  C         6.1762385686       -0.7455909395       38.0590029345
  H         1.4155677242       -1.0177662147       16.9622432252
  H         2.0806927903       -2.1924005750       18.1224971381
  C         3.0131957522       -2.2474525790       16.2999645039
  H        17.2649758985        2.3678362637       24.4056911570
  H        16.6624021609        0.8200527692       23.9073203411
  C        17.9227406816        2.0842883520       22.4724065357
  S        11.9294602650        5.9046517309       11.6881671346
  C        11.5483745426        8.5102070011       11.0717619009
  H         6.0522993995       -1.2398196430       39.0417875528
  H         6.6856850763       -1.5089797747       37.5050152813
  H         6.8400895658        0.1624134195       37.9686027132
  H         2.3472702017       -3.0030997808       15.8835038072
  H         3.8957526166       -2.8610150732       16.6203963794
  H         3.4542475281       -1.5404014330       15.5835872628
  H        18.9299124428        1.8121831523       22.8715069032
  H        18.2182950193        3.1539896778       22.1303408679
  H        17.7901269008        1.3256099277       21.6708037834
  C        12.4337827699        6.6100289415       10.2084939986
  N        12.2301837951        7.9622855383       10.0553364275
  O        11.3117573506        9.7190412574       11.2340074416
  S        13.0892165812        5.6362153995        8.8453071774
  C        12.6113375016        8.8212051729        8.9289060166
  H        12.7574123497        9.8384555792        9.2970004828
  H        13.5849479585        8.5413619232        8.3803905563
  C        11.4900236813        8.7934848463        7.8690275799
  H        11.4273517815        7.9208559460        7.2381485096
  H        10.5623161080        8.7815671854        8.4220958562
  H        11.3729508821        9.5860866281        7.2158675773
  H        -3.1823104094       15.1419426562       16.2693540923
  C        -2.9616092886       14.0192195889       16.0759249841
  H        -3.8844105774       13.5089965764       16.4488109419
  C        -1.8013952007       13.6318147246       16.9333698410
  C        -2.8421203264       13.6527620761       14.6282739510
  C        -2.1073054809       14.2331385442       18.3249044962
  H        -1.7684683830       12.5282123657       16.9506493430
  H        -0.8190268564       13.9755333867       16.5081377063
  H        -3.4293231024       14.3418430254       14.0253040955
  H        -1.7179589178       13.6209291553       14.3395976071
  H        -3.2726016337       12.6312589266       14.5079491680
  C        -1.5898392224       13.3186538380       19.5194950394
  H        -3.2371261428       14.2757203116       18.4327643403
  H        -1.7298538812       15.2384194644       18.5086646416
  C        -2.2758092672       13.6779561764       20.8377455361
  H        -1.7865420728       12.2292124681       19.3298712969
  H        -0.5283189980       13.3642833128       19.5896279905
  C        -1.4732344138       13.1041131806       21.9709124439
  H        -3.2476075427       13.2126907484       20.7760612100
  H        -2.3962081826       14.7732917018       20.9178361152
  C        -0.3107988760       14.0539378401       22.2898937648
  H        -2.1339331459       12.9143904669       22.7703377865
  H        -1.1647471476       12.1597656634       21.6773216345
  C         0.8774475893       13.3297760732       23.0442051853
  H         0.0576227910       14.4225786478       21.4154226872
  H        -0.5353986418       14.9228817796       22.9284304268
  C         1.1770529166       11.9494816233       22.3458284959
  C         0.4930070477       12.6160074996       24.2925074682
  C         2.2546093535       14.0949784478       23.0612771061
  C         1.1054837200       10.8745999613       23.1993288252
  C         1.6646749732       11.5526901699       21.0544031176
  C         0.6295399192       11.2728335664       24.4370806174
  C         0.0270449415       13.3911863938       25.3839614736
  H         2.3815998200       14.4430412681       22.0238886060
  H         2.2949505923       14.9349273902       23.7703767962
  C         3.4296046898       13.2348916441       23.4628838737
  S         1.4887709432        9.3778990935       22.4698571677
  C         1.8234708761       10.2405053232       20.9747086004
  H         1.7889928747       12.2362687258       20.2485973241
  C         0.3061706509       10.7883188746       25.6827950827
  H         0.0591434484       14.4645117535       25.4116247001
  C        -0.2562105820       12.8706445836       26.6059071551
  H         3.6040478553       12.4952703570       22.7103071507
  H         3.1607527946       12.7163342094       24.3807546750
  C         4.7631865146       13.9551900318       23.6664562929
  C         2.3193948558        9.5645342194       19.7380236171
  C        -0.1803490083       11.5268869734       26.7585590544
  H         0.3174997938        9.6945117346       25.8591486440
  C        -0.5197178229       13.3018371769       27.9095783895
  H         5.4554883999       13.4963450071       24.3684747032
  H         4.5562921452       14.9374780673       24.0289502065
  C         5.5799697434       14.1671114716       22.3680288994
  C         2.4473495204        8.2111767533       19.5509385789
  C         2.8291665124       10.3732320104       18.5757871507
  C        -0.5688882584       10.8202861298       28.0487126392
  C        -0.7374647444       12.2088014304       28.7623231800
  S        -0.7130362226       14.7947112693       28.7049898120
  H         6.1230562451       15.0983152360       22.5885743292
  H         4.8760891000       14.4793326781       21.6031535027
  C         6.4084355296       13.0310996729       21.8618373011
  N         2.0789914070        7.2948212413       20.5029073441
  C         2.8363115550        7.6362846433       18.3544824298
  C         3.2463656024        9.8232878674       17.3734598287
  H         2.8145732863       11.4498743563       18.5746000215
  C         0.5412904106        9.9397120864       28.6905307982
  C        -1.8556894179       10.0617111645       27.7979445847
  C        -1.0701062485       12.6571063098       30.0567675141
  C        -1.1132261229       14.0558774282       30.1862809475
  H         7.1133960348       12.7892042617       22.6959172312
  H         5.9586039921       12.1016215630       21.7418468618
  C         7.2682566864       13.3565339525       20.6024374698
  S         2.3782572738        5.7704562680       19.9196326757
  N         2.7916853400        6.2707180073       18.3742387650
  C         3.1270426030        8.3772698706       17.2146372981
  H         3.6562658933       10.4763782901       16.5529875850
  H         0.7295483875        9.0357794808       28.0905454738
  H         0.0767146045        9.5481284169       29.6038629454
  C         1.8975128797       10.6759677233       29.0301402681
  H        -1.6750152904        9.3934577490       27.0087440308
  H        -1.9837981658        9.5634096704       28.7601710365
  C        -3.0837032581       10.8946031739       27.5610027969
  H        -1.1847979826       11.8896617087       30.7593816221
  C        -1.3690434092       14.7339185202       31.5138272067
  H         8.0021062709       12.5960354088       20.4054618424
  H         7.7456754902       14.3474021594       20.8510486864
  C         6.4392655502       13.5906463809       19.4374583120
  C         3.2979432065        7.6481271932       15.9800381175
  H         2.4055974408       11.0414870589       28.1486080278
  H         1.7860209420       11.4462940085       29.7388500866
  C         2.9326413276        9.6493801944       29.5613798684
  H        -3.0781132773       11.3938616451       26.5892734203
  H        -3.1710275541       11.7064929951       28.2309821711
  C        -4.3822308921       10.0974093077       27.5887329029
  C        -1.5154705463       16.1238701231       31.7850626102
  C        -1.4349531966       13.8616547724       32.7177323841
  H         5.6326756712       12.8652046898       19.3739281794
  H         5.8467036520       14.5094699930       19.5137014041
  C         7.1414278226       13.4411404770       18.0842052113
  H         3.0648863203        6.6321455912       15.9617069577
  C         3.6132051546        7.9481361321       14.7102894986
  H         2.8965095360        8.8487163705       28.8069537953
  H         2.5573699287        9.2055616651       30.4074874039
  C         4.3497508904       10.2421497965       29.8046358244
  H        -4.2967138928        9.3047958633       26.8749377518
  H        -4.4351304715        9.4397785257       28.5034459962
  C        -5.6437776556       10.8167299990       27.3295729237
  N        -1.1321724220       17.1221966559       30.8658502949
  C        -1.9329943476       16.6157139948       33.0207228123
  C        -1.8857674963       14.3678472348       33.9402161582
  H        -1.3352281266       12.8018930695       32.6900741993
  H         6.4167979685       13.5544863461       17.3302660047
  H         7.9457574268       14.1743491368       17.8991114215
  H         7.4866206312       12.5142467182       18.0509145467
  S         4.0726827348        9.5115569169       14.2139826893
  C         3.6702737132        6.8780124285       13.6522345176
  H         4.6021448623       10.8951888025       28.9664083312
  H         4.2167446403       10.9116896796       30.6840976439
  C         5.3827072159        9.1078057883       30.0002692091
  H        -5.5313784985       11.8220350147       26.8290358007
  H        -6.0492726431       11.0808434078       28.2591553754
  C        -6.6016841177       10.1215638669       26.3396958402
  S        -1.1646206798       18.5448308145       31.6099704807
  N        -1.8720954364       17.9770364362       32.9759866523
  C        -2.2067697203       15.8175610463       34.1442549448
  H        -1.9389250586       13.7031749993       34.7676878626
  C         4.2523529416        8.7913265433       12.6500400934
  N         3.9748311907        7.4749140367       12.4737999566
  O         3.2278107299        5.6978754470       13.7444898639
  H         6.0441909386        9.3366666514       30.7891414038
  H         5.8773865304        9.1254605522       29.0278006374
  C         4.8624278808        7.6652837910       30.2431360728
  H        -6.0113730252        9.5274582612       25.7188673859
  H        -7.1454565472        9.4739079191       27.0862599264
  C        -7.5081755002       11.0307028747       25.5454263545
  C        -2.6252661284       16.5046222584       35.3294827723
  S         4.5578778932        9.7584904431       11.1739728961
  C         3.6741519233        6.7921542619       11.2019891274
  H         4.1391564604        7.6711879781       31.0253412418
  H         4.3343140254        7.2462483230       29.4150942117
  C         6.0730762333        6.7651584422       30.6580161688
  H        -6.7880972396       11.5692771941       24.8352627460
  H        -8.0408162695       11.6996893602       26.2581486557
  C        -8.6310948708       10.3269469301       24.9033994941
  H        -2.2677757018       17.5462008494       35.3635813391
  C        -3.2451116325       16.0819255512       36.4521779369
  H         4.1203191434        7.4274003679       10.4580764205
  H         4.1632052012        5.7783875093       11.1842457440
  C         2.2271360113        6.5421923115       11.0400562222
  H         7.0473913751        7.2241231665       30.3637347124
  H         5.9306826849        5.8180965608       30.1300088571
  C         6.2245365921        6.4971292599       32.1690847625
  H        -8.6932192452       10.7727965584       23.8840968935
  H        -8.2753958669        9.3269496515       24.6744988941
  C        -9.9073143490       10.2488737746       25.7473640781
  S        -3.8147901992       14.4991967421       36.8555166653
  C        -3.4066160195       17.0907455727       37.5210415332
  H         2.0448016113        5.5577483174       11.2790713206
  H         1.6497676397        7.1826193612       11.6523566423
  H         1.9308353344        6.7358113895        9.9812296729
  H         5.3959004973        5.9427633741       32.5350215369
  H         6.2669207774        7.4182712457       32.7317934168
  H         7.1796040080        5.9409305341       32.3264976647
  H        -9.8141909706        9.8156268298       26.7756293025
  H       -10.6175301941        9.5635677722       25.2893363782
  H       -10.2427489685       11.2740921144       25.7889807943
  C        -4.3200492689       15.2138307473       38.3627803154
  N        -4.0384409183       16.5302185017       38.5406919089
  O        -3.0581595108       18.2671478309       37.3738272792
  S        -5.2312416703       14.4345922404       39.6240565307
  C        -4.2153644141       17.1456773969       39.8215465822
  H        -4.2398119087       18.2007792606       39.7957616785
  H        -5.1093906036       16.8221185283       40.3127431817
  C        -2.8622200914       16.8029750949       40.5486187678
  H        -2.7970267677       17.1972375789       41.5325702565
  H        -2.7646599087       15.7441147995       40.5820104677
  H        -1.9998649199       17.1828671460       40.0239991414
