352
 i =    30900, time =    30900.000, E =        25.1343782769
  H        12.6410745426        5.7301319966       32.0806575355
  C        11.5957039072        5.5737657933       32.5344989342
  H        11.2683756792        4.5597271293       32.6023217397
  C        10.7170683513        6.3147170968       31.5118428908
  C        11.5591178735        6.2174980263       33.9792877956
  C        11.2884173599        6.2696744728       30.0854657702
  H         9.7221119191        5.9070465209       31.6236453816
  H        10.7361326548        7.3407426987       31.8481472273
  H        10.4787809626        6.1862149130       34.1307926780
  H        12.0003640593        5.7004689800       34.7983005862
  H        12.0113772046        7.2559891167       33.9290726584
  C        10.1022392386        6.0368348881       29.0969262428
  H        11.9664982631        5.4083516828       29.8001063556
  H        11.7940755455        7.2080221351       29.8987110600
  C        10.6061859283        5.8734170816       27.6853434563
  H         9.5388941104        5.1198350471       29.4417999435
  H         9.4141099585        6.8265841246       29.1160316514
  C         9.5530555531        5.1816960236       26.7894172402
  H        11.5177625045        5.2815923955       27.7065885224
  H        10.8856794270        6.8133937353       27.2095689659
  C         8.4965735747        6.1378015554       26.2877157550
  H        10.1557674477        4.9286048265       25.8407051425
  H         9.1907116627        4.2453876702       27.1772867349
  C         7.3516682003        5.4695808225       25.4703508294
  H         8.1375195795        6.7265286335       27.1445748247
  H         8.9348725841        6.9190918863       25.6636090904
  C         6.9604741678        4.1917900147       26.1196975514
  C         7.7757452656        4.7257606480       24.2508100985
  C         6.0536338448        6.2983385370       25.3258340836
  C         7.2064572527        3.0302695877       25.3892700945
  C         6.5006714718        3.8200417773       27.4243324855
  C         7.6530488263        3.3762387117       24.1232133010
  C         8.3427261001        5.3744168529       23.1139667247
  H         6.1879945298        7.0687423797       24.5773339595
  H         5.8669731087        6.8319627783       26.2475676692
  C         4.8946383333        5.4434162008       24.8282386372
  S         6.7488668058        1.5581042697       26.1123144439
  C         6.3691414942        2.4241784430       27.6066991570
  H         6.3108887172        4.5888885828       28.1083045668
  C         7.9348962190        2.7516843117       22.9884740085
  H         8.3492698881        6.4506808260       23.2889758151
  C         8.6467292033        4.7503114277       21.9089046268
  H         5.1446391760        4.9123663228       23.9174576571
  H         4.5338383239        4.6655305565       25.5468039322
  C         3.6891316439        6.4253100597       24.4686295432
  C         5.8702194367        1.7855440817       28.8609364637
  C         8.4352397710        3.4139338439       21.8214036173
  H         7.8100542543        1.6322485437       23.0340001948
  C         9.0146441671        5.0239435229       20.5996331485
  H         3.0138492371        5.8840568572       23.8028663239
  H         3.9393247718        7.4986498401       24.1704182630
  C         2.8179250327        6.7754890146       25.7174815223
  C         5.8061504413        0.3995802994       29.0945776806
  C         5.4831460001        2.6278992951       30.0409132619
  C         8.8161440173        2.5950825880       20.6068056268
  C         9.1713482228        3.8776166031       19.8460678647
  S         9.4916868082        6.4607715534       19.7844869159
  H         1.9213565248        7.3949133484       25.4027249834
  H         3.3225219890        7.3741721874       26.4979414223
  C         2.1580980462        5.6318630830       26.3558815506
  N         6.0946614856       -0.6041173010       28.1689198872
  C         5.5541602193       -0.1312838418       30.3752336024
  C         5.1446813289        2.0716620386       31.2710131404
  H         5.4345180180        3.7236864087       29.9793275151
  C         7.5896162287        1.8256761483       19.9803316990
  C        10.0995112490        1.7778483282       21.0714942017
  C         9.4368626380        4.1656162675       18.5020538793
  C         9.6952112587        5.5119494917       18.3174971800
  H         1.3514491906        5.3979812062       25.6885623002
  H         2.7654484779        4.7171510504       26.2960064171
  C         1.7762140887        5.8527416677       27.8254632285
  S         6.0661170589       -2.0246518242       28.8692934974
  N         5.6974648296       -1.5129040710       30.3971357944
  C         5.2298053851        0.6131271578       31.4990707069
  H         4.8738162052        2.7608530362       32.0662011385
  H         7.3553148504        0.9191680721       20.5736504712
  H         8.0203623366        1.4836672138       19.0684733937
  C         6.3970165479        2.7103652676       19.6577822236
  H        10.4025227422        1.0803218907       20.2413044421
  H         9.7677560688        1.1636884472       21.9176025020
  C        11.3476716547        2.5316679438       21.3101129425
  H         9.3928730597        3.3023726932       17.8479401776
  C        10.0532535601        6.2195578804       17.0858568501
  H         1.0053569104        5.1277051430       28.2174303530
  H         1.2170958922        6.8099681804       27.8905505370
  C         2.9690017482        5.7338197595       28.8119461811
  C         4.9632524509        0.0438666522       32.7839920909
  H         6.6164514357        3.5090790538       18.9782931802
  H         6.0599831859        3.0998801792       20.5613174968
  C         5.2848226928        1.8579476143       19.1110312778
  H        11.3119272023        3.1900131974       22.1532430055
  H        11.5020536279        3.3098912842       20.5615579559
  C        12.5456285605        1.5400068927       21.3754582197
  C        10.0990092330        7.6069575063       16.8988506039
  C        10.1550794677        5.4246973157       15.8230811970
  H         3.4036405624        4.7492816519       28.8156992596
  H         3.7839462972        6.4099036492       28.5496890579
  C         2.4404034876        5.9023097462       30.2802834550
  H         4.9978472468       -1.0046367236       32.7262223930
  C         4.7285984427        0.5149165685       34.0056527325
  H         4.7871886598        1.2360440775       19.8657311323
  H         5.5692734386        1.0891138439       18.4050266866
  C         4.1137255214        2.6917756105       18.6164696948
  H        12.6971534148        1.2057308969       22.3945935265
  H        12.4827418821        0.6186341462       20.7686694629
  C        13.8744513594        2.2318731373       20.9644472170
  N         9.8457179743        8.5936562274       17.8194998518
  C        10.4415738518        8.1857660118       15.6331626135
  C        10.5057144083        5.9665912627       14.6146454345
  H        10.0477983392        4.3490603205       15.8745092007
  H         2.0411653964        6.9029280203       30.3615613098
  H         1.6098861391        5.1558496633       30.4217227772
  H         3.2153147434        5.5563033130       30.9445958927
  S         4.4070128811        2.1231654857       34.5054725351
  C         4.7038620458       -0.4766465936       35.0849206490
  H         4.0314673753        3.5658642371       19.2829926797
  H         4.2913242667        3.1265424288       17.6451231846
  C         2.8268513212        1.8489696560       18.5748271824
  H        13.7431493820        2.8445511917       19.9971710380
  H        14.5004448890        1.3459823498       20.8190240839
  C        14.5159848586        3.1162918282       22.0973529714
  S        10.1653059448       10.0750322373       17.2197045387
  N        10.5679759306        9.6133740299       15.7170876047
  C        10.6587298583        7.4086333168       14.4840337120
  H        10.4946953105        5.3032048982       13.7566006027
  C         4.2783690081        1.4649157121       36.1632193246
  N         4.5027592740        0.1293392682       36.2454512070
  O         5.0754960384       -1.6565421705       34.9591271782
  H         2.0268838069        2.6050234531       18.6472927568
  H         2.7160491212        1.2596790460       19.4639330682
  C         2.6453213395        0.8866314328       17.4029904652
  H        15.3210185740        3.8018227540       21.8182997109
  H        13.7691785542        3.8430074439       22.4360260160
  C        14.9910932256        2.3309000221       23.2664868111
  C        11.0332912048        8.1323093269       13.3640184159
  S         3.7420295637        2.2716876378       37.6047918638
  C         4.5894955380       -0.6309105918       37.4896032308
  H         1.6991250409        1.0405408713       16.9235289980
  H         3.3766872083        1.0204534780       16.6964042945
  C         2.6710362738       -0.6666493309       17.7320219566
  H        15.2696854036        1.3148582062       22.9512010989
  H        14.2300859317        2.1787378398       23.9966832713
  C        16.1225162361        2.9883125996       24.1246049383
  H        10.8470472228        9.1700489172       13.3440852193
  C        11.5830967387        7.7145565540       12.2034276991
  H         4.1203561955       -0.2012427609       38.3806847921
  H         4.0388534807       -1.5334093431       37.2757436350
  C         6.0580217206       -0.8665330547       37.9424807053
  H         3.4136312402       -0.9437259699       18.4738554696
  H         3.1617144631       -1.0731307303       16.8367375202
  C         1.2708266783       -1.2851373976       17.8718215766
  H        15.8617093821        3.9969100527       24.4738336803
  H        16.3697193906        2.4305638538       25.0508452432
  C        17.5433557971        2.9469994344       23.3945373432
  S        11.8102471254        6.0616368360       11.8344271980
  C        11.9370040351        8.7711031733       11.1522328169
  H         6.6599745115       -0.7782091617       36.9865025027
  H         6.5282436041       -0.1176354953       38.6516783821
  H         6.2290980825       -1.9398132769       38.2314553916
  H         0.4443197193       -0.5710723063       18.0090441016
  H         1.0953570543       -2.0998437942       18.5685589346
  H         1.0910936432       -1.6396524253       16.8522029383
  H        17.7248965954        3.8003462122       22.7262499446
  H        17.6861018248        2.0582790088       22.8022352579
  H        18.4030183058        3.1155412819       23.9593476527
  C        12.2618586703        6.6954700784       10.2263946308
  N        12.3000044561        8.0576468482       10.0737209179
  O        11.5713838749        9.9690096474       11.1335765387
  S        12.5883062063        5.7949208691        8.7945006646
  C        12.7307614247        8.7012849530        8.9069397668
  H        13.0170415914        9.7169681015        9.1454474766
  H        13.4560313487        8.1659686447        8.3309412935
  C        11.5820831403        8.7664585798        7.8839753981
  H        11.3314708281        9.8198507932        7.7517428103
  H        11.8257720779        8.2523200306        6.9811656973
  H        10.6948208670        8.3991911828        8.3245354312
  H        -2.3104837974       15.1499288644       16.7994357447
  C        -3.1658431115       14.5120433464       16.6663537594
  H        -4.1260182039       15.0458600416       16.6457079005
  C        -3.1237263559       13.5509035064       17.8108505559
  C        -3.0551277968       13.6801866706       15.3804742350
  C        -2.8960005040       14.1004581261       19.1548507207
  H        -4.1560570646       13.0999132663       17.8231075075
  H        -2.5079069284       12.7109369833       17.5205077782
  H        -2.1578506584       13.0900807920       15.3332398382
  H        -3.8612035700       12.9637997959       15.2805875344
  H        -3.1591751588       14.4041685183       14.5646496127
  C        -1.9926875058       13.2382536750       20.0383057105
  H        -3.9105306122       14.4869275725       19.5229053741
  H        -2.2916384673       15.0836998208       19.0836979155
  C        -2.2131390518       13.6692533556       21.5189370444
  H        -2.2145581517       12.1579701653       20.0013271051
  H        -0.9418971232       13.3697173567       19.7688851223
  C        -1.1559492526       13.0171585478       22.4253860984
  H        -3.1202913037       13.1685137943       21.9138307777
  H        -2.3648689229       14.7546589637       21.6428268406
  C         0.0510833257       13.9817167745       22.7070060157
  H        -1.6110143536       12.7676556897       23.3664034976
  H        -0.8870331809       12.0438304668       21.9320920590
  C         1.3046154802       13.3228162298       23.3671275359
  H         0.3383539769       14.4290213244       21.7914116848
  H        -0.2234089202       14.6893716328       23.5248492395
  C         1.5546925935       11.9376634268       22.6267432759
  C         0.8326650227       12.6052194975       24.6109402425
  C         2.4850591604       14.3203487371       23.5432717252
  C         1.1801344455       10.8399633484       23.4159667031
  C         1.9026193366       11.5128535699       21.3155433972
  C         0.8058771815       11.2662838038       24.6844033309
  C         0.4478848690       13.2857110282       25.7401114094
  H         2.5163422972       14.9948679080       22.6931847746
  H         2.0935914678       15.0353950865       24.3461049415
  C         3.7785395049       13.7608903152       24.0072729759
  S         1.4333425982        9.2997243984       22.6480260842
  C         1.9669391739       10.1329247562       21.1922386348
  H         2.1982189107       12.2917504700       20.5983042174
  C         0.5203005545       10.6538167851       25.8753582253
  H         0.5012034954       14.3337176949       25.6979437590
  C         0.0979350089       12.7175513596       26.9099583659
  H         3.9944636366       12.8545226015       23.4310732774
  H         3.6723640693       13.5335596206       25.0385271506
  C         5.0079509019       14.6381340316       23.7668257037
  C         2.3450573462        9.4210587655       19.9071844112
  C         0.1152195520       11.3593773616       27.0016153207
  H         0.4773329732        9.5700732894       25.9029477284
  C        -0.3973534091       13.0915953677       28.1097295511
  H         5.8511594136       14.2923603875       24.3563804267
  H         4.8326839893       15.6490499811       24.0736206171
  C         5.5130555604       14.8332321948       22.3375438416
  C         2.4167552285        8.0326499933       19.7236600055
  C         2.8355487964       10.1168901085       18.6856308854
  C        -0.2580023175       10.6295054545       28.2781964753
  C        -0.5702354471       12.0048120107       28.9657620508
  S        -0.9695409308       14.5932363698       28.8769306610
  H         6.2294719359       15.5989906230       22.4206382066
  H         4.7905461678       15.3473956548       21.7713011495
  C         6.0098539521       13.5214554822       21.7017091971
  N         2.0913610672        7.0739279097       20.6909987683
  C         2.7618378429        7.4087691292       18.4969765535
  C         3.1863448503        9.5213091014       17.4902594400
  H         2.9902116549       11.1809572364       18.6808405927
  C         0.9498926730        9.8384212280       28.9932999965
  C        -1.4368626382        9.7279201222       28.1965698087
  C        -1.0663407519       12.4161391916       30.2192239099
  C        -1.2902807122       13.7229947274       30.3896375218
  H         6.1821136471       12.8592405251       22.6011302078
  H         5.1062435521       13.1392953569       21.2748607886
  C         7.1243233919       13.7336379095       20.6361959774
  S         2.1686168799        5.5829803596       20.0653132743
  N         2.6086678922        6.0159127591       18.5791532165
  C         3.1216173621        8.0534335916       17.3078123838
  H         3.1689508647       10.1750780650       16.6876859635
  H         1.2024708841        8.9676758910       28.3752501822
  H         0.6307711296        9.5448688649       30.0141353765
  C         2.2872230234       10.6470968793       28.9768412828
  H        -1.0798314977        8.8788763149       27.6874915854
  H        -1.6873201280        9.4869603442       29.2281471197
  C        -2.6202576629       10.2639438103       27.4529992175
  H        -1.0813283054       11.6794034560       31.0106039707
  C        -1.5323220485       14.4019431977       31.7315627999
  H         7.5290893280       12.7682793193       20.3134028060
  H         7.9462811667       14.3500150823       20.9817949377
  C         6.6768525217       14.3490820835       19.3364660842
  C         3.2781306271        7.3802197690       16.0942736547
  H         2.5854230808       10.9007439618       27.9592839980
  H         2.0637701390       11.5326664383       29.6317622968
  C         3.3386259368        9.8751068116       29.7849573266
  H        -2.3772607808       10.3643492332       26.3592195715
  H        -2.7573491882       11.3144421161       27.7873820227
  C        -3.9810943451        9.5503461348       27.7145517309
  C        -1.6306601492       15.7778458110       31.9854096463
  C        -1.6466442282       13.5136564485       33.0002011196
  H         5.7801196656       14.9567972079       19.6240892827
  H         7.4487876427       14.9881236316       18.8635582646
  C         5.9867795893       13.2656628782       18.4325533717
  H         3.0579365718        6.3969888324       16.0060830684
  C         3.7535181684        7.7647898418       14.8921778581
  H         3.1987043373        8.7683393399       29.6984809922
  H         3.1220526135       10.1746942176       30.8782253212
  C         4.8203926946       10.3462585378       29.5432465606
  H        -4.1554216347        8.7816485334       26.9643544962
  H        -3.9529000377        9.0677414596       28.6644949081
  C        -5.2561190751       10.3511622525       27.4507055780
  N        -1.5226942147       16.7608568593       30.9929659751
  C        -1.9140721432       16.3396499342       33.2363766647
  C        -1.9329657937       14.0846104988       34.2601492878
  H        -1.5589756407       12.4267469917       32.8635735236
  H         6.7967198097       12.6930380221       17.9473363773
  H         5.4106427272       12.5752192734       19.1052983776
  H         5.2773610249       13.5921358871       17.7075210695
  S         4.0351369176        9.4345222617       14.4835316444
  C         3.8493785060        6.7434425334       13.8533476098
  H         4.9049212172       10.9967578618       28.5971936195
  H         4.9894943470       11.1272192299       30.3603947850
  C         5.8008034485        9.1751061285       29.5278491664
  H        -5.2846370083       11.3831412817       27.8936610966
  H        -6.0917939703        9.8211175024       27.9391597120
  C        -5.6550935232       10.4209091272       25.9611036183
  S        -1.4368261889       18.2144043254       31.7279408303
  N        -1.7192024261       17.7108010337       33.2326268236
  C        -2.1317383308       15.5835712229       34.4071208478
  H        -1.9572544771       13.4387138423       35.0665671160
  C         4.2821774605        8.7796492698       12.8315052357
  N         4.1837152720        7.4069143143       12.7870408819
  O         3.6713377549        5.4915809413       14.0304921436
  H         6.7918669729        9.6950775283       29.3699537854
  H         5.6085151370        8.4501250548       28.7324202279
  C         5.7975432643        8.5679678297       30.9398982056
  H        -4.9019709899       10.8991259223       25.3623823897
  H        -5.9020561581        9.4461548957       25.4705589750
  C        -6.9061088436       11.2056778683       25.6854614698
  C        -2.3130715433       16.2678492950       35.6272699673
  S         4.6852359557        9.7537774359       11.4300028689
  C         4.1428494248        6.7285053734       11.4572800992
  H         6.2976141541        9.2106194901       31.6315926794
  H         4.8167504311        8.5223920469       31.3235735852
  C         6.3571136672        7.1584483142       30.8847056387
  H        -6.7658991188       11.7806865541       24.8085590998
  H        -7.0390930277       11.8892446952       26.5116052106
  C        -8.1894001333       10.4089547774       25.4650469642
  H        -1.9368829603       17.3083860712       35.6011967614
  C        -2.9679477718       15.9402063185       36.7998227971
  H         4.8200579966        7.1372335023       10.7277508767
  H         4.5628373719        5.7154004385       11.6514662496
  C         2.6448701734        6.7215189940       10.9860926928
  H         7.1960893107        7.1745836169       30.2416801693
  H         5.8014182743        6.4258439490       30.2100330852
  C         6.7769152273        6.5601092166       32.2082904792
  H        -8.6312131065       10.7479365191       24.5148453716
  H        -8.0263293778        9.4019531791       25.4201749043
  C        -9.2900764213       10.6306481477       26.5545492144
  S        -3.7992081773       14.5133641336       37.2335652627
  C        -3.0589266171       17.0226604195       37.8480926021
  H         2.5109578625        5.9767554113       10.1742010861
  H         1.9895933978        6.3538729425       11.8204155903
  H         2.2858146085        7.7866441879       10.8279682846
  H         6.1093075691        6.7988886481       33.0187428338
  H         7.8438019773        6.8489924717       32.3738891673
  H         6.7884489232        5.4622936609       32.1327848875
  H       -10.2377390543       10.3916268237       26.2261689123
  H        -9.2634501518       11.6163493434       26.9570433525
  H        -8.9885134658       10.0713959534       27.3989184620
  C        -4.1955052371       15.3232736372       38.7225272048
  N        -3.8194590793       16.5972639952       38.8589090566
  O        -2.4450689750       18.0978837070       37.8451977016
  S        -5.0388947736       14.4554315306       40.0858439428
  C        -3.8629336769       17.3318595322       40.1251415534
  H        -4.1037298438       18.3255754300       39.7341322871
  H        -4.7997640852       17.0349355836       40.6654825089
  C        -2.6605215750       17.1082244319       41.0281008103
  H        -1.7898153494       17.5919080615       40.5690818625
  H        -2.7527561841       17.3717406550       42.0368042874
  H        -2.4775093379       16.0023798092       41.1258322639
