352
 i =    30800, time =    30800.000, E =        25.4411290884
  H        12.5206788051        6.6114275856       32.3440401548
  C        11.7347529883        5.9256950093       32.7814600865
  H        12.1194403333        4.9337946142       33.0185510528
  C        10.6575739265        5.8436153340       31.6888197357
  C        11.2900901919        6.5430962407       34.0251839054
  C        11.1224877180        5.7390650847       30.2533149685
  H        10.0296366808        5.0011688706       31.8294504324
  H        10.1040065010        6.7806860941       31.6755767017
  H        10.2530752398        6.3153033505       34.3304234191
  H        11.9166242784        6.2350839531       34.8626767355
  H        11.5931211203        7.6604524155       33.9510863799
  C        10.0216972099        5.8217316381       29.1672642520
  H        11.8234885876        4.8794465650       30.1557192194
  H        11.6988897292        6.6144577767       30.1652730845
  C        10.6404874118        5.9924711571       27.6926422008
  H         9.4680375454        4.8933842205       29.0678485964
  H         9.2764323099        6.5228511901       29.3688543873
  C         9.8416924231        5.3138699458       26.6360995317
  H        11.6198721178        5.5767307291       27.6613120458
  H        10.7817357325        7.0354787334       27.5472519585
  C         8.6249676701        6.1424331589       26.2128510718
  H        10.5141824828        5.0188258207       25.7861439766
  H         9.5960864275        4.3242432692       26.9850818505
  C         7.4718158716        5.3576874544       25.5529128278
  H         8.1699710166        6.7132736086       27.0574189432
  H         8.9718746537        6.9514581352       25.5804605547
  C         7.0365982100        4.0555425024       26.2661696738
  C         7.8905088160        4.5803317974       24.3881207459
  C         6.2119438402        6.2317963140       25.2879730177
  C         7.1640053922        2.9476164946       25.4671759152
  C         6.4638220609        3.7850709456       27.5067905661
  C         7.7530194615        3.2387930497       24.2281375781
  C         8.3384742077        5.2224998207       23.1708953681
  H         6.4785472003        7.1380827157       24.8900730998
  H         5.8229298608        6.4573140907       26.2487377380
  C         4.9708566536        5.5026188651       24.7369888087
  S         6.5032288780        1.5518166316       26.2250480743
  C         6.1445307108        2.5034734122       27.6483222985
  H         6.3504496925        4.6066628598       28.2013652659
  C         8.0055998452        2.6273789477       23.0626619476
  H         8.4642264014        6.2705753977       23.2536119798
  C         8.6122310466        4.5539130180       21.9905079727
  H         5.2264195554        5.0071996799       23.7918967697
  H         4.7162609657        4.6934036946       25.4291971290
  C         3.7603550609        6.3449670151       24.5170711982
  C         5.7510695660        1.8198901910       28.9500639875
  C         8.5225808392        3.2136376422       21.9195274629
  H         7.6976511179        1.5927695543       22.9977329378
  C         8.9740816870        4.9174167473       20.7773107386
  H         2.9714022781        5.8729369712       23.9907984162
  H         4.0483052252        7.3424751171       24.0901574655
  C         2.9550927444        6.7003402804       25.7814650241
  C         5.8647777451        0.4127701622       29.2750046064
  C         5.3375594919        2.6818509752       30.0950712443
  C         8.7118761909        2.4855590082       20.6523554579
  C         8.9745394964        3.7757432043       19.9793718395
  S         9.2505282001        6.4368781693       20.0131953732
  H         2.2866685831        7.5299249981       25.4861553164
  H         3.6286730849        7.0585987828       26.5586319478
  C         2.1870621198        5.4710666732       26.3865929398
  N         6.1121923980       -0.5635325671       28.3047456769
  C         5.6425371475       -0.1341919880       30.5228481374
  C         5.1478500706        2.1897549407       31.3699850852
  H         5.2718016279        3.7585822309       29.9364503745
  C         7.5272503578        1.6657876895       20.0829964731
  C        10.0523843250        1.7288314263       20.6434310555
  C         9.2926813711        4.1905346710       18.6486904556
  C         9.5065354165        5.5421174073       18.4900566914
  H         1.4044247637        5.1588087182       25.6922842690
  H         2.8099190381        4.5955746456       26.4236432188
  C         1.5869037996        5.6818135909       27.7427689328
  S         5.9819391905       -2.0329070689       29.0374713692
  N         5.7189517827       -1.5365759413       30.5793634038
  C         5.2409696601        0.7342263088       31.6177453168
  H         4.8545778434        2.8227270220       32.1523277994
  H         7.1753474392        0.9426091368       20.8523631498
  H         7.9092976375        1.0000144628       19.3356979816
  C         6.3760078711        2.5262633895       19.5344154782
  H        10.2877040141        1.5468359718       19.5868628095
  H         9.7696115919        0.7589031607       21.1046313872
  C        11.2540184914        2.3898012823       21.3212002340
  H         9.3122964839        3.4023187462       17.9032724033
  C         9.8882929470        6.2299187347       17.1932029731
  H         0.9573865654        4.7411282127       27.9706190152
  H         0.8550998092        6.5354869741       27.8568574009
  C         2.7433674395        5.9307465227       28.8073657083
  C         5.1320635008        0.0432154873       32.8316553881
  H         6.7464193859        3.1577652092       18.7383787371
  H         5.9507120022        3.1032279526       20.3045403570
  C         5.1814172345        1.7058213866       18.9965178105
  H        10.9607272973        2.8080811825       22.2651451883
  H        11.5430571923        3.3343723770       20.8529373602
  C        12.3968400837        1.4365832849       21.5024493923
  C        10.0986230069        7.6245901470       17.0299692439
  C        10.0248375189        5.3389658279       16.0167099563
  H         3.3060150299        5.0680369803       28.6744922401
  H         3.4566591271        6.7050109650       28.6254827206
  C         2.2787338973        5.9881213481       30.2471303619
  H         5.4644039465       -0.9569297409       32.8340777240
  C         4.8380771825        0.4685988023       34.1148883973
  H         5.0766041157        0.8667767149       19.6662417114
  H         5.4580592748        1.2304373936       18.0649848779
  C         3.8179848240        2.5412975332       18.8535788797
  H        12.3725964018        1.1218521072       22.5398553049
  H        12.2628858264        0.4861209940       20.9276552618
  C        13.8484807719        1.8590060976       21.2157367455
  N         9.9626843445        8.5651761380       17.9981899955
  C        10.3150498546        8.0872890957       15.7684284375
  C        10.2861656446        5.9633016430       14.7980766661
  H         9.8962242805        4.2473448490       16.1158766472
  H         1.2485072124        6.4115124595       30.2387108693
  H         2.4123910829        5.1162358006       30.9263192245
  H         2.9343720974        6.7163566747       30.7100425522
  S         4.4093151746        2.0884562406       34.5615085292
  C         4.7672025731       -0.5538474184       35.1861568732
  H         3.5275326023        3.0491916677       19.7760768429
  H         3.9089733668        3.3694111131       18.1974358640
  C         2.5270760781        1.7513237105       18.7281086455
  H        13.9243908405        2.3794036944       20.2002409378
  H        14.4832396734        0.9687614132       21.1971161054
  C        14.3337785463        2.8209452697       22.3129110018
  S        10.0333922936        9.9938255628       17.2807013175
  N        10.3292107915        9.4697035718       15.7507980852
  C        10.6089882593        7.3242612025       14.6256653284
  H        10.2982164039        5.4647159355       13.8250695269
  C         4.1675516604        1.3943739457       36.1673938185
  N         4.3487112772        0.0687006301       36.3366461689
  O         5.0847356547       -1.7223939141       35.1170371918
  H         1.6350629193        2.3714311731       18.6633026335
  H         2.4311231588        1.0752697339       19.6179631004
  C         2.6340112741        0.7360186244       17.5068081397
  H        15.0033138485        3.5358880977       21.7997686340
  H        13.5361594171        3.5086574665       22.7374823178
  C        15.1189629380        2.0794766868       23.4219396992
  C        11.0643845132        7.9261443844       13.3902071213
  S         3.8983964901        2.3999239286       37.5966271321
  C         4.4357497454       -0.6586355919       37.5982410326
  H         1.7928649669        0.9988655433       16.8803792653
  H         3.5102644146        0.9012288265       16.9637829530
  C         2.5029073551       -0.7301485951       17.8476412185
  H        15.5117822867        1.1218334347       23.1025085197
  H        14.3953757729        1.8204309693       24.1677055488
  C        16.2799770464        2.8215489842       23.9858025301
  H        11.1242020480        8.9683838382       13.4573364182
  C        11.4570187263        7.5038914696       12.1347816870
  H         3.8810325917       -0.1111494380       38.4120169676
  H         4.0231639971       -1.6505330288       37.4394981282
  C         5.8299880489       -0.7505431574       38.1330733445
  H         3.0353439480       -1.0106372218       18.7310724455
  H         3.0734399162       -1.2486504801       17.0936616299
  C         1.1279204594       -1.4329113392       17.9387672712
  H        15.9806333468        3.8557438540       24.1655995365
  H        16.7736563996        2.4462488693       24.8766986251
  C        17.4397222319        2.9247429570       23.0227116240
  S        11.8207774781        5.9606052770       11.6835970658
  C        11.5172462068        8.5137056025       11.0152555553
  H         6.5305776310       -0.8520133834       37.3385630629
  H         6.1237888362        0.1483569346       38.6647980244
  H         5.9379258626       -1.6156147397       38.7424169779
  H         0.5622913161       -1.0841239423       18.8279252616
  H         1.2889027298       -2.4734327787       17.9599272537
  H         0.5943013547       -1.2276425733       17.0247640935
  H        17.5566864423        3.8961286265       22.5540198530
  H        17.4541986616        2.0746143488       22.3696654737
  H        18.2968427003        2.9926841373       23.6496411566
  C        12.1615474930        6.6752271888       10.1078698836
  N        12.0185619508        7.9588717786        9.8906720306
  O        11.2653898301        9.7051871594       11.1446142844
  S        12.9325755293        5.8259336180        8.7419547206
  C        12.2336189238        8.8278712708        8.7158885534
  H        12.4879998707        9.8548582645        8.9296157016
  H        13.0356675908        8.5443394105        8.0036313926
  C        10.8965711010        8.9548575577        7.9709285697
  H        10.6471214936       10.0137666698        7.6954009891
  H        10.8311500852        8.2591538365        7.1298807907
  H        10.0965118959        8.7814649549        8.6990082700
  H        -1.7943988521       14.6496778021       16.3799778041
  C        -2.8080147374       14.2692067517       16.5294547049
  H        -3.5216138719       15.0735599904       16.6846988634
  C        -2.8743121494       13.4109325913       17.8096688204
  C        -3.1255218795       13.4476453930       15.2596415926
  C        -2.8279448826       14.1231567451       19.1508981073
  H        -3.8646176403       12.8729339856       17.8702834892
  H        -2.1434915512       12.5667686218       17.8288286069
  H        -2.4934203671       12.5638033115       15.3293414918
  H        -4.1722184815       13.0537422807       15.3291766549
  H        -2.9918688805       14.0568578908       14.3343558548
  C        -1.8739519542       13.4312311476       20.1009718147
  H        -3.8996172957       14.1629174120       19.5584730186
  H        -2.4599619019       15.1765748615       18.9063196656
  C        -2.2841680209       13.6591654020       21.5643305351
  H        -1.7888135923       12.3644214540       19.9486438145
  H        -0.8534766456       13.8179036834       19.9919555230
  C        -1.2483900277       13.1333883221       22.5803791559
  H        -3.3077713741       13.2341422150       21.7774765142
  H        -2.4705840617       14.7267482294       21.7936421477
  C        -0.0164154166       14.0609446888       22.6205644125
  H        -1.6703561465       13.1840968668       23.5559840791
  H        -0.9774281882       12.0801429147       22.3905046200
  C         1.2199417899       13.3350340906       23.3133127616
  H         0.4166911165       14.3957359797       21.7085026822
  H        -0.3985756826       14.9268140764       23.1985704579
  C         1.5594841454       11.9683995110       22.6089762526
  C         0.7595963659       12.6470628061       24.5944256803
  C         2.4153741842       14.2539652465       23.4546405194
  C         1.3774246244       10.9081040206       23.4975553307
  C         2.0409292090       11.6151539989       21.3478302967
  C         0.7643638334       11.3051229904       24.6938386510
  C         0.2238014517       13.2778329978       25.7386589783
  H         2.5075897514       14.8126655426       22.5527552958
  H         2.1407597396       15.0240916649       24.2383286631
  C         3.7576934426       13.6625836104       23.9720246317
  S         1.8003399321        9.3797893019       22.8129690734
  C         2.1772436522       10.2986018535       21.3192791687
  H         2.2980234755       12.3813555868       20.7001333505
  C         0.3534674601       10.6438865324       25.8053020378
  H         0.2340397572       14.3479625216       25.8788703874
  C        -0.1224664635       12.5851965369       26.8712563310
  H         3.9532027692       12.6418148563       23.6301367834
  H         3.7350242214       13.7015056818       25.0531795746
  C         5.0433806250       14.5346523073       23.6790508718
  C         2.5998133992        9.6111319195       20.0129465722
  C        -0.1303409665       11.2553665925       26.9648284984
  H         0.4159134781        9.5451222815       25.8434315122
  C        -0.4871153716       12.9639691742       28.1070353061
  H         5.9038495703       14.4032916580       24.3440615340
  H         4.8513803749       15.5633489440       23.8044487641
  C         5.4699020415       14.4026410027       22.1496684710
  C         2.4407984474        8.2286515380       19.7297439723
  C         3.1161001847       10.3476219891       18.8233245832
  C        -0.3730829764       10.5076862379       28.2328445514
  C        -0.6509872451       11.8646077122       28.9643097090
  S        -0.7468051627       14.4613993731       29.0120441319
  H         6.0619956316       15.2199172623       21.7948032474
  H         4.5808157270       14.6005360899       21.6122875084
  C         6.3056070737       13.1487401822       21.7899162316
  N         2.0537146506        7.3544146735       20.6659506769
  C         2.7196552031        7.5327970749       18.5642140050
  C         3.3483036008        9.6910907355       17.6347273957
  H         3.5106715313       11.3401731999       18.9960810902
  C         0.8878689781        9.7135643391       28.8076622888
  C        -1.5802640419        9.5955681021       28.1176238416
  C        -0.9061404800       12.1747566172       30.2971463187
  C        -1.0451216819       13.5298612190       30.4451319745
  H         6.8347087261       12.8034050803       22.6925378886
  H         5.5614334374       12.3534764201       21.6437064001
  C         7.3385192065       13.3831065247       20.6468670051
  S         2.1635241803        5.8120699618       20.1141037900
  N         2.6440005221        6.1446533076       18.6174397046
  C         3.0953712087        8.2562928794       17.3758325316
  H         3.7495818683       10.3074003057       16.8081599706
  H         1.1069225556        8.8898869012       28.1436680136
  H         0.7462224919        9.3541165045       29.8009424090
  C         2.1371878218       10.6345572249       28.9219466807
  H        -1.4361824170        8.8848097862       27.3523143556
  H        -1.7427433190        8.9875225638       29.0250200238
  C        -2.9123821525       10.1650192961       27.7655790243
  H        -1.0843421703       11.3809226102       31.0134710713
  C        -1.3412618961       14.1818209227       31.7684027642
  H         7.6272817954       12.3877361651       20.3030786502
  H         8.2350223807       13.8945457560       20.9714383047
  C         6.8896722269       14.0369211400       19.3514476031
  C         3.2767577507        7.5709724446       16.1070011542
  H         2.5501753252       10.9882285719       27.9927244419
  H         1.8735439352       11.5097097554       29.5932638137
  C         3.2340036382        9.6968694675       29.5793636949
  H        -2.7950328368       10.6938295125       26.7673550787
  H        -3.2100711207       10.9757714095       28.4852854740
  C        -4.0044955075        9.1093269887       27.5078049746
  C        -1.6865996453       15.5686397268       31.9601159530
  C        -1.5310061963       13.4032414623       33.0185073228
  H         6.1803892741       14.8430579154       19.5585750610
  H         7.7595594033       14.5509145732       18.8509384562
  C         5.9747347532       13.1426902213       18.5020167325
  H         3.2801286075        6.5315602154       16.2478156581
  C         3.5862757081        7.9595771415       14.8134772248
  H         3.4391262504        8.7350862747       29.0813867972
  H         2.9532220228        9.4286506779       30.6882308533
  C         4.5751008261       10.4222251980       29.6974175553
  H        -3.5875985945        8.4751045468       26.7771133393
  H        -4.2322661970        8.5007808128       28.3773298249
  C        -5.3515592361        9.6715392019       27.1990175036
  N        -1.5462922244       16.5445897044       30.9420179166
  C        -2.0639542576       16.1400627231       33.1230807112
  C        -1.9290241982       13.9605433424       34.2115068849
  H        -1.3686745800       12.3776961462       33.0075516789
  H         6.5802336128       12.3967825694       17.9611103256
  H         5.1766921928       12.7066404198       19.1974650336
  H         5.3707573293       13.6284219281       17.7246075369
  S         3.9843869072        9.4639725239       14.2667757682
  C         3.6362442104        6.8719802169       13.7605139647
  H         4.8258392035       11.1996964389       28.9336015218
  H         4.6128283885       11.0388132335       30.6466097028
  C         5.7439162082        9.3678761762       29.8063101202
  H        -5.5428160956       10.4648099037       27.9186546854
  H        -6.1096943090        8.9451253516       27.4269327036
  C        -5.5547562311       10.1449687834       25.7482826042
  S        -1.9567442102       18.0010181194       31.4843861290
  N        -2.2482623281       17.5545619450       33.0306965967
  C        -2.1952249853       15.4458965276       34.3332732444
  H        -1.9510787480       13.1606545661       34.9893669837
  C         4.2264886513        8.7140700250       12.6901908764
  N         4.0551071697        7.3828040966       12.6011948299
  O         3.5250404455        5.7302726392       14.0208677116
  H         6.6706306592        9.9060509752       29.6214197938
  H         5.6428776613        8.6770473645       28.9936564386
  C         5.7695590349        8.5051144851       31.0472592434
  H        -4.6580549364       10.6673977787       25.3710077900
  H        -5.6700975373        9.1375570060       25.2318063316
  C        -6.7687350305       11.0527992537       25.5484184515
  C        -2.4567549623       16.1766730293       35.5380554441
  S         4.4895525864        9.6318644195       11.1474631088
  C         4.0361031330        6.6094473307       11.3570495382
  H         6.2171000334        9.0939871819       31.8623709424
  H         4.8066700243        8.2945790898       31.4653730630
  C         6.6352765016        7.2270025507       30.8396392402
  H        -6.5493599856       11.9562515110       24.9248726928
  H        -7.0039264971       11.3890093753       26.5271320622
  C        -7.9691908333       10.2281953742       25.0754123135
  H        -2.2127473990       17.2804216521       35.5530592156
  C        -2.9588585217       15.8378578602       36.7645762505
  H         4.8480955306        6.9423433165       10.7498897116
  H         4.3122227373        5.5337390060       11.5985360992
  C         2.7894236453        6.8094854230       10.5818991917
  H         7.6018945124        7.5193750745       30.4721496309
  H         6.4236556311        6.4620158393       30.0405750770
  C         6.7455649633        6.4595823628       32.2268681293
  H        -8.4039965872       10.8145267681       24.2879286998
  H        -7.7029157771        9.3101924874       24.7840517352
  C        -9.0002765000       10.1645514059       26.1852323965
  S        -3.4536893229       14.2700758902       37.1963473622
  C        -3.0077389646       16.8768704782       37.8363553523
  H         2.6004159498        5.8521470513       10.1771675690
  H         1.8887865566        7.1427076055       11.1329179500
  H         3.0037343313        7.6461693308        9.9198064015
  H         5.9927127588        6.8680308050       32.8272161148
  H         7.7426791246        6.6121094094       32.5613693557
  H         6.5539558229        5.4394022677       32.0466360943
  H        -9.7327437286        9.4845622820       25.7543550111
  H        -9.4812666897       11.1849617351       26.2369101018
  H        -8.6380950400        9.9923703664       27.2080360918
  C        -3.9870282510       15.0585764707       38.7390972010
  N        -3.7163920766       16.4073996552       38.8423365810
  O        -2.7454052319       18.0543271253       37.6600253970
  S        -5.0336286244       14.2608907040       39.8590648476
  C        -4.0395997761       17.2829672645       39.9429215904
  H        -4.3768798375       18.2416887190       39.5535585559
  H        -4.8451534829       16.8162447355       40.5112275783
  C        -2.8431341198       17.6136556577       40.6981299141
  H        -1.9822199161       17.0759827228       40.2368609867
  H        -2.6302555585       18.6191396084       40.9779028379
  H        -3.0793856242       17.1090555631       41.6762823959
