352
 i =    13600, time =    13600.000, E =        25.2004955878
  H        12.4294952807        6.9374256226       32.4258211351
  C        11.6983404555        6.1292662603       32.5114909328
  H        12.2753179071        5.2650517770       32.2600468030
  C        10.6499914273        6.4854394331       31.5143308495
  C        11.0915295374        5.9055199857       33.8976551418
  C        11.1846576263        6.0847279722       30.0907424301
  H         9.6784135922        5.9164462897       31.6784606175
  H        10.4421946645        7.5318368996       31.5151053085
  H        11.7358761717        5.7326265944       34.7102341475
  H        10.6424704486        6.8272425860       34.1837497861
  H        10.3579282782        5.0513016319       33.9765117476
  C        10.0624348438        5.7898158412       29.0507602939
  H        11.7002373577        5.1490597430       30.1425270028
  H        11.8397990632        6.9175543510       29.7297762151
  C        10.5727754840        5.7251425035       27.6695684387
  H         9.6860879903        4.8098218305       29.3187193574
  H         9.3536179646        6.6228642720       29.0820795714
  C         9.5668716474        5.0961610178       26.6604209195
  H        11.5824630360        5.2639479184       27.7472368484
  H        10.7411715785        6.7054862446       27.3503301475
  C         8.3193145795        5.9372517351       26.4389683215
  H        10.1604610963        5.0905496884       25.7044377301
  H         9.3729146345        4.0400839999       26.8883825934
  C         7.1819942788        5.2920820290       25.7018744313
  H         7.9370541801        6.2460650594       27.4130767432
  H         8.6968895088        6.7993401154       25.9211791895
  C         6.7962232265        4.0150838005       26.4035550900
  C         7.5738515880        4.6020531892       24.4568456600
  C         5.9499817140        6.2796475551       25.6354149877
  C         7.0832292228        2.8721631821       25.6203425047
  C         6.1835877630        3.7146071967       27.6002383153
  C         7.6661252389        3.2773270115       24.4370338854
  C         8.0212401941        5.2806137118       23.3306771207
  H         6.2495800062        7.0626325270       25.0516530699
  H         5.7068151707        6.7870449666       26.6077853248
  C         4.6855767371        5.6848905634       24.9981227207
  S         6.6693886756        1.3465793192       26.4085250436
  C         6.1071613706        2.3557381033       27.7784126944
  H         5.8364479884        4.5069584099       28.2927450028
  C         8.0107553953        2.6555611992       23.2850214488
  H         8.1116467057        6.3140004422       23.3249362171
  C         8.4046484808        4.6131160661       22.1581997058
  H         5.0112895296        5.3778584282       23.9456434713
  H         4.4350035920        4.7187383510       25.5782266335
  C         3.4593448130        6.5548354348       24.8622705710
  C         5.7246789566        1.6750525386       29.0286700305
  C         8.3313146661        3.2694254528       22.1063232612
  H         7.9815087116        1.6152536168       23.2846698905
  C         8.8653344690        4.8984169941       20.9077945862
  H         2.6559865246        6.1735234236       24.2763282454
  H         3.6505398518        7.3765345576       24.2472085107
  C         2.8666379229        6.8413181125       26.3227669322
  C         5.6964187671        0.2831266603       29.3031340719
  C         5.3119645953        2.5600697192       30.1764603064
  C         8.6898311212        2.4561649765       20.8407363105
  C         8.9214084008        3.7846989811       20.1129551410
  S         9.1006121500        6.4291786434       20.2145917945
  H         2.2969581287        7.7794181958       26.3993056962
  H         3.6383530881        6.8166254048       27.1548651050
  C         1.8742319983        5.6991758058       26.6285234867
  N         5.7885494158       -0.7644463179       28.4255933189
  C         5.5188553579       -0.1417076899       30.6381738948
  C         5.1183295805        2.0709824628       31.4404344628
  H         5.1771057843        3.6432715502       29.9521821460
  C         7.4562921779        1.6868553250       20.2464774083
  C        10.0521814354        1.6767205788       20.9748421178
  C         9.2034019279        4.2309513943       18.7739772378
  C         9.3545825474        5.6090562962       18.6759654478
  H         1.0701642814        5.6685868079       25.8476302486
  H         2.3929048073        4.7145221562       26.6485108995
  C         1.2439253730        5.8609174262       28.0305386083
  S         6.0247372725       -2.1129728096       29.2867871466
  N         5.6427285243       -1.5164825186       30.7329570397
  C         5.2555296602        0.6379007210       31.7532397635
  H         4.7543990974        2.6558262385       32.2126841848
  H         7.0476324633        0.9793371915       20.9936704253
  H         7.8806115317        1.0990816218       19.4679880082
  C         6.4312036849        2.5976211657       19.6322026666
  H        10.3281747379        1.1544456291       20.0656525491
  H         9.9282468154        0.8720859988       21.6815788848
  C        11.1742719435        2.6549558860       21.3461434116
  H         9.3338494271        3.5013712836       18.0203812932
  C         9.7414820572        6.3653243002       17.4956064702
  H         0.4726649361        5.0584813179       28.0617340032
  H         0.7203503834        6.7879426094       27.9576121093
  C         2.1615753828        5.7708933226       29.1855063272
  C         4.9879175480        0.0367376671       33.0769015690
  H         6.7787968382        3.2392129993       18.8009155031
  H         6.0374430760        3.3473158257       20.3483791861
  C         5.2033810332        1.7719382505       19.1720701250
  H        11.1373026109        2.6235698862       22.4453994334
  H        11.1393634565        3.7066475157       21.0848577095
  C        12.4430168776        2.1048073704       20.7466897327
  C         9.7664886069        7.8192705199       17.3058171476
  C        10.1992925423        5.6274509057       16.3001747700
  H         2.6511782734        4.8248060081       29.2689583507
  H         2.9953945885        6.4175678396       29.0427542656
  C         1.6477916348        6.2058466186       30.5056205264
  H         5.0006740594       -1.0306567355       32.9206351140
  C         4.8069948025        0.5579221829       34.3405701752
  H         4.5455241737        1.8609296574       20.0823164620
  H         5.5463126357        0.6971286332       19.0139936639
  C         4.4277012231        2.3844038924       18.0071887920
  H        12.5381810000        1.1479319756       21.1543972368
  H        12.2762920902        2.0978318705       19.6870937156
  C        13.6768659974        2.9830690536       21.1185930593
  N         9.2997926903        8.7390685609       18.2607312989
  C        10.1080887336        8.4811662142       16.1554800506
  C        10.4903356802        6.2614121145       15.1105429212
  H        10.2697822709        4.5314247953       16.3288910618
  H         0.8689897034        6.9720610048       30.5060908610
  H         1.3013094618        5.3159418572       31.0393005036
  H         2.4870593349        6.5171422988       31.1046226715
  S         4.4623872690        2.1718930420       34.7204956166
  C         4.6307410558       -0.4592332875       35.4153844721
  H         4.4150460916        3.4318239223       18.1419746168
  H         4.9849383279        2.2994824016       17.1607253686
  C         3.0290892360        1.8281965633       17.8463780251
  H        13.5782911908        4.0533166079       20.8205296786
  H        14.4635278678        2.4552048879       20.5873739185
  C        13.8971215907        2.9947518799       22.6439034541
  S         9.3614784516       10.2460867490       17.6903806373
  N        10.0753304293        9.9073157437       16.2357703727
  C        10.4878626269        7.7868968965       14.9619124579
  H        10.6805006019        5.6838908805       14.2225789822
  C         4.2161331539        1.5174645515       36.3564290858
  N         4.2627084574        0.1886828778       36.5213832923
  O         4.9441829380       -1.6315144932       35.2673156406
  H         2.5595817526        2.3972585135       17.0472168457
  H         2.3511368757        2.1938415860       18.6295551419
  C         3.0289970687        0.3411525399       17.5210217032
  H        14.4694953699        3.8978871309       22.8042893495
  H        12.9652517479        3.2376218460       23.2023608858
  C        14.7346538947        1.7834605177       23.0656341138
  C        10.8515981351        8.5946295484       13.8399497709
  S         3.9917450592        2.5550261273       37.8703500294
  C         4.2427398530       -0.5044480932       37.8451150203
  H         2.1297940544        0.1615188635       17.0211798260
  H         3.9173228643        0.2418051260       16.9367538082
  C         2.8371962570       -0.6253002755       18.6758102436
  H        14.9080080332        1.0534878534       22.2405532147
  H        14.3385683046        1.2515279844       23.9577312653
  C        16.0502695532        2.2588820462       23.6636741859
  H        10.7260873605        9.6261987782       14.0233352380
  C        11.4510940032        8.2540914267       12.6927316224
  H         3.6623896255       -0.0835404595       38.6489475760
  H         3.7399089062       -1.4629594298       37.6833395948
  C         5.6711274783       -0.6153183149       38.4209368276
  H         3.2301623255       -0.3119444039       19.6683753740
  H         3.3727967906       -1.5349265725       18.4622224362
  C         1.3728995908       -0.9538789701       18.8256720497
  H        15.9217701914        3.1698993000       24.2527099773
  H        16.5784940416        1.6238765404       24.3343153162
  C        17.2464240582        2.5166011194       22.8269121363
  S        12.0650101480        6.7473872278       12.2381732747
  C        11.6661690176        9.3117186263       11.6314692114
  H         6.0140392885       -1.6343984328       38.2133433185
  H         6.3762384773       -0.0525603036       37.8546171863
  H         5.8142487393       -0.3852093854       39.5104449983
  H         0.7285596065       -0.9065613114       17.9739714801
  H         1.1020182687       -0.2594022935       19.5556664506
  H         1.3157327606       -1.9302044921       19.2948764783
  H        18.1573023056        2.3326249570       23.5076544761
  H        17.2446522165        3.5160959738       22.4673004601
  H        17.4870443173        1.8173912596       21.9846161151
  C        12.6003122773        7.4700502838       10.7008752946
  N        12.3812208521        8.7891445250       10.6100371944
  O        11.1588500514       10.4580573057       11.7143526458
  S        12.9182303423        6.5346790255        9.2520296619
  C        12.5030011090        9.4868736436        9.3254193910
  H        12.7122102932       10.5389729820        9.6438030610
  H        13.3169302719        9.1991611005        8.7937301030
  C        11.1471138955        9.2809009454        8.5846245637
  H        10.2600540393        9.2624404269        9.2489923001
  H        10.9363667198       10.1412486870        7.9756475370
  H        11.1139195596        8.3468863981        8.0185914425
  H        -4.0041109217       14.7542679950       16.6034158963
  C        -3.3084606783       13.9466786377       16.5037604034
  H        -3.7188653469       12.9908528811       16.8592010322
  C        -2.2698139064       14.0407414941       17.5207776476
  C        -2.8894163911       13.8494245853       15.0875705740
  C        -2.7987344945       13.9378494154       18.9583228426
  H        -1.4501445194       13.2973775213       17.2445249105
  H        -1.7357694055       15.0429504265       17.4075269411
  H        -2.8973238658       12.7833347894       15.0420288092
  H        -3.6989013501       14.0300851783       14.3382445446
  H        -1.9351758454       14.1196829501       14.7269031136
  C        -1.6884005243       13.8606831596       20.0218875444
  H        -3.5151642372       13.0841496493       19.0429336137
  H        -3.3902962370       14.8215120390       19.0848703580
  C        -2.2269655634       13.6983322182       21.4093427288
  H        -1.0543230129       13.0440172428       19.7475521799
  H        -1.0738254056       14.7105770153       19.9244388092
  C        -1.1229709467       13.0958273769       22.2648344469
  H        -3.1734261974       13.1037792578       21.4449681093
  H        -2.6218017621       14.6156064151       21.8919712173
  C         0.1146219472       13.9104707798       22.5377814674
  H        -1.7062896668       12.8842604760       23.1592824379
  H        -0.7951586574       12.0957564827       21.9081706053
  C         1.3411679084       13.2158328618       23.3170533846
  H         0.4290027520       14.3237439299       21.5651796938
  H        -0.2056486055       14.7135100739       23.1096698285
  C         1.7055305038       11.8920727960       22.6231215809
  C         0.8799642237       12.5156110155       24.5787632288
  C         2.5684890414       14.2083098496       23.5425647604
  C         1.3484429505       10.8023627142       23.4037238551
  C         2.1566290046       11.5186421365       21.3600746530
  C         0.9411451971       11.1790272930       24.6681287680
  C         0.3431995610       13.1726822752       25.6660759371
  H         2.7323502588       14.6965729570       22.6193161958
  H         2.2285669398       15.0731687170       24.1529804825
  C         3.8071832459       13.4855450451       24.1044333646
  S         1.6252494025        9.2700418142       22.6009039953
  C         2.1236392096       10.1339148977       21.1819778792
  H         2.4212882543       12.3302571270       20.7233152584
  C         0.4612080900       10.5219500446       25.7951957159
  H         0.3192664211       14.2072681675       25.5579503917
  C         0.0177122055       12.5166915824       26.8561229616
  H         4.0026682532       12.6935153845       23.3826616116
  H         3.6441774227       12.9690245079       25.0916256073
  C         4.9632329648       14.4014247794       24.1669800742
  C         2.5834082335        9.4153726719       19.9000753638
  C         0.0671408663       11.1906581484       26.9349697420
  H         0.4617077727        9.4379777888       25.7881309933
  C        -0.4289232639       12.8009598014       28.0837463341
  H         5.7796985354       13.8788863426       24.7497650701
  H         4.7250731619       15.3842294841       24.5218824684
  C         5.5669754735       14.5202967510       22.7652952895
  C         2.5201274076        7.9904877709       19.6514862943
  C         2.9274491357       10.3143625803       18.7887178206
  C        -0.2352263881       10.3897274668       28.1497419811
  C        -0.5635311218       11.6702704543       28.9068623533
  S        -0.8181651690       14.2708629281       28.9544255356
  H         6.3320411224       15.2457908676       22.7578928748
  H         4.8670947097       14.7307218939       21.9402011375
  C         6.4035989388       13.3037853657       22.3906703196
  N         2.1780131473        7.0098436260       20.5959222900
  C         2.7160182331        7.4597182373       18.4044342571
  C         3.1100909100        9.7810212748       17.5424687892
  H         3.1106565545       11.3718386947       18.9474344430
  C         0.9421445595        9.6734442289       28.7011398861
  C        -1.5615118331        9.4573513889       28.0569362464
  C        -0.9747909792       12.0714782392       30.2148612665
  C        -1.2077138902       13.4181482472       30.3699982146
  H         7.1614607454       13.3388924928       23.1368785070
  H         5.7886268730       12.4236454503       22.3671645719
  C         7.0699662670       13.4318471093       21.0106268736
  S         2.0930017743        5.6003691506       19.8600413127
  N         2.5983809731        6.0736749267       18.4124409457
  C         3.0387703069        8.2789060032       17.2552889796
  H         3.4299860645       10.4898154479       16.8019701107
  H         1.2546120577        8.7772957319       28.0925196443
  H         0.5955809931        9.3939861110       29.6823475873
  C         2.1701747541       10.5135895816       28.8984713671
  H        -1.4223885759        8.4237810981       27.7526914357
  H        -1.8950734447        9.3372594996       29.0540170005
  C        -2.6978917493       10.1281384716       27.2487535798
  H        -1.2025108908       11.2905694153       31.0187449988
  C        -1.6034282393       14.1608368991       31.6285143237
  H         7.7852318655       12.6497220852       20.7967705226
  H         7.6056054481       14.3550832280       20.9552660657
  C         6.0368847559       13.4360911576       19.8277067049
  C         3.3439397252        7.6578732388       16.0540514850
  H         2.5542995761       10.9834643090       28.0469488367
  H         1.9621598119       11.4808752428       29.4960623115
  C         3.2910165786        9.7063228733       29.5516507723
  H        -2.3350237887       10.2857342821       26.1978694610
  H        -2.9087235948       11.1233643875       27.5967800152
  C        -3.9728847196        9.2774723031       27.1512955525
  C        -1.4951373101       15.5257298624       31.8637363087
  C        -1.9432172101       13.3741734146       32.8511423264
  H         5.3488404402       12.5995917420       20.0557489585
  H         5.3296917739       14.2851392336       19.7005577150
  C         6.5282906290       13.2831575225       18.3827230216
  H         3.3268734576        6.5270750749       16.0184750137
  C         3.6088553757        8.0998009585       14.7591654923
  H         3.9761982083        9.4440574959       28.7960083294
  H         3.0319111674        8.6931630212       29.8873802564
  C         4.0110747374       10.4931951331       30.7089656377
  H        -3.9041776527        8.6254865476       26.3536475225
  H        -4.0991227077        8.7329866755       28.0965237885
  C        -5.1410384195       10.1463030885       26.7560307856
  N        -1.2926353616       16.4850686804       30.8572149834
  C        -1.6739166810       16.0628861548       33.1036779004
  C        -2.1014091297       13.8945787956       34.1295920100
  H        -2.0136104366       12.3311020352       32.8409340998
  H         5.6957333699       13.0675306760       17.7535525607
  H         7.0112160876       14.2379407376       18.0706513398
  H         7.3303423672       12.5218035975       18.3023789442
  S         3.9001485892        9.7476626111       14.3019069672
  C         3.8087662206        7.1018331338       13.7014813419
  H         3.7985861951       11.5455362319       30.7192525239
  H         3.4598481635       10.2212550074       31.6626073837
  C         5.5123885209       10.1780946134       30.8383183221
  H        -4.7644680777       10.5768077827       25.8105714133
  H        -5.3285378955       10.8622246245       27.4940352149
  C        -6.4289130747        9.3996854783       26.4983247710
  S        -1.5111439008       17.9816865987       31.4972990652
  N        -1.6360439647       17.4649622462       33.0402556454
  C        -1.9916035167       15.3390838966       34.2929117418
  H        -2.3543476105       13.1833055639       34.9254465965
  C         4.1703241666        9.0773180527       12.6762018432
  N         4.1364460447        7.7152764370       12.5482328712
  O         3.9256457863        5.9062866248       13.9760311905
  H         5.9370458865       11.0148158113       31.3329491976
  H         6.0775637930       10.1767330256       29.9332556999
  C         5.8631749963        8.9955488514       31.6482266192
  H        -6.3008766456        8.5990646483       25.7632581556
  H        -6.4445740300        8.7819113785       27.3499583161
  C        -7.6892098818       10.2204056534       26.4579547175
  C        -2.3040288827       16.1459681083       35.4480069312
  S         4.3761273997       10.0804590588       11.2998341891
  C         4.2301529526        7.0326358744       11.2611510129
  H         6.8644517124        9.1576025676       31.9865660667
  H         5.1969975046        9.0225483421       32.4346291095
  C         5.9307904681        7.6599640746       30.9306884942
  H        -7.5841003665       11.0528993006       25.7934152371
  H        -7.9891311587       10.5350420769       27.4637629600
  C        -8.8392578469        9.5075339069       25.9660064751
  H        -2.0188506432       17.1678411374       35.3890558509
  C        -2.8219229950       15.8588048569       36.6747269155
  H         4.9517911633        7.5621394446       10.6781036621
  H         4.5485857679        5.9742577685       11.3872646597
  C         2.8700462773        6.9954376363       10.5594400818
  H         6.6268625484        7.4930184753       30.1758137589
  H         5.0467591738        7.6433302122       30.2867483655
  C         6.0088513432        6.5462530342       31.9072408703
  H        -8.8783537149        8.5083067617       26.4307572530
  H        -9.7154375922       10.0766074962       26.2779871494
  C        -8.7174718682        9.2973678556       24.4266196556
  S        -3.4245708391       14.3339894210       37.1598174656
  C        -3.0477691209       16.9529595744       37.6845935487
  H         2.5820846442        5.9394328070       10.3121761405
  H         2.0082664720        7.2942661144       11.1206787427
  H         2.9730405985        7.4630359269        9.6690695021
  H         6.7358487003        6.9392492081       32.6812569281
  H         6.3154417360        5.5583648094       31.6255639644
  H         5.0426759570        6.3987709250       32.4059333410
  H        -9.7710613114        9.0749937589       24.1765330337
  H        -8.0663278966        8.5196074948       24.2159539504
  H        -8.6370921241       10.2257983455       23.8150855397
  C        -3.9751555295       15.1288405772       38.6241345752
  N        -3.7045752270       16.4699058230       38.7150025239
  O        -2.5813323718       18.0943118039       37.4275824504
  S        -4.6254504287       14.3452969916       40.0661870283
  C        -3.8556762084       17.2597350876       39.9228372583
  H        -3.6517000454       18.3369713009       39.6476771887
  H        -4.8346904303       17.1860402078       40.4028075684
  C        -2.7479593649       16.9104134313       40.9115455781
  H        -2.0057122738       16.3104270252       40.4065890809
  H        -2.2326217716       17.8243928324       41.2108592726
  H        -3.0877252876       16.4479615922       41.8189194161
