352
 i =    92800, time =    92800.000, E =        25.0950959503
  H        10.3512556459        6.6709947164       32.0998328206
  C        11.4971417876        6.5882264079       32.0706446157
  H        11.9613001732        7.6169054044       32.0190727826
  C        12.0354021272        5.9682119888       30.6850898814
  C        11.9871975525        5.7283015368       33.2960507870
  C        10.8162891794        5.2483673032       30.1036101743
  H        12.4162257287        6.5515110765       29.8504881328
  H        12.8617856020        5.3158255808       30.8612521416
  H        13.0303722614        5.6835815474       33.3453253890
  H        11.5730226365        6.2022501523       34.1789203797
  H        11.5638431343        4.7506203907       33.2940136312
  C         9.9234023470        6.2439416631       29.3129144041
  H        10.2860797504        4.6685666493       30.8141832329
  H        11.1223177481        4.4268552818       29.3994462831
  C        10.1874072812        6.0911608021       27.8126348438
  H         8.8942275447        5.9881313040       29.6031926944
  H        10.1183568560        7.2491555062       29.5451315752
  C         9.2307727558        5.1844213004       27.0172412608
  H        11.2446279338        5.8018026164       27.6759404891
  H        10.1069805362        7.0166120946       27.3393247074
  C         8.2136877794        5.8970037295       26.1838584215
  H         9.7435323394        4.4403063804       26.3651885893
  H         8.6673131257        4.5777468238       27.8226367501
  C         7.2899234234        4.8621430637       25.3713481684
  H         7.6687726428        6.5363786197       26.8581689577
  H         8.5900013234        6.5948461146       25.3975399021
  C         7.0156665207        3.5395121694       26.0681986255
  C         7.9193142422        4.1906229478       24.2049471655
  C         5.9637365778        5.5150246201       24.8692385439
  C         7.3654083886        2.4604440113       25.2887272845
  C         6.4557484161        3.1297000180       27.2953931923
  C         7.8984625358        2.8320978163       24.0852726912
  C         8.3523498807        4.8677941780       23.0961935759
  H         5.3805824900        4.8203248905       24.2595193568
  H         6.2155522231        6.2641499004       24.2022085327
  C         5.0433606914        6.0186687443       25.9822374469
  S         7.1092738091        0.9599414782       26.0215598060
  C         6.5522699897        1.7616190763       27.4986681719
  H         6.1657422406        3.9166057356       27.9393446982
  C         8.2746840246        2.2895249396       22.8940729500
  H         8.3137326249        5.9913257667       23.1122238658
  C         8.7625334969        4.3302664462       21.9431246937
  H         5.2658450846        5.5313902872       26.8844494804
  H         5.3123934245        7.0338935555       26.1524046506
  C         3.6517383236        5.6215296559       25.6213205184
  C         6.0448009424        0.9585567162       28.6470958733
  C         8.7804799631        3.0100944363       21.8212371535
  H         8.1578448881        1.2809093341       22.6989816331
  C         9.2589949107        4.7953976778       20.7195375180
  H         3.6295529304        4.5594930202       25.6623525436
  H         3.2641256680        5.8874617528       24.5395827930
  C         2.6931578486        6.1008006243       26.7265356087
  C         6.1874640065       -0.4093479301       28.8969780328
  C         5.5980241002        1.8728507460       29.7740514112
  C         9.2506304152        2.3386090960       20.6129823769
  C         9.4923387304        3.7175445480       19.8848199454
  S         9.5479139213        6.3367118386       19.9843078651
  H         1.7944522038        6.4918794683       26.2701728535
  H         3.1725322361        6.9392112537       27.3373471960
  C         2.2866172697        4.9421953756       27.6007813870
  N         6.6165330649       -1.4129839774       28.0020361721
  C         5.7541143565       -0.9029335738       30.1253896443
  C         5.2798381624        1.2922784707       30.9745348543
  H         5.3832676221        2.9164058924       29.6042824828
  C         8.1589777628        1.4540226824       19.9086375555
  C        10.5279231960        1.3855352891       20.7827457846
  C         9.8890786443        4.1151145136       18.5944805012
  C         9.9357156587        5.4869538688       18.5553703916
  H         1.7471241211        4.2811802416       26.8334304922
  H         3.1656992625        4.3968529657       27.9270134308
  C         1.3067671467        5.3869813153       28.7036582692
  S         6.4138378592       -2.8038834315       28.7297800974
  N         5.8755535072       -2.2639063738       30.1755913475
  C         5.4384287973       -0.1609107441       31.2915025113
  H         4.9278220652        1.8845935471       31.7805681654
  H         7.9357838652        0.5797563506       20.5012763583
  H         8.5779959307        1.1961070688       18.9408692507
  C         6.7810485766        2.1411190182       19.7844986422
  H        10.8766147059        0.9468068189       19.8273476449
  H        10.2734129356        0.5443488560       21.4015389671
  C        11.8238708664        2.1204964073       21.2973111909
  H        10.1478534791        3.3558619001       17.9835420732
  C        10.3674631079        6.2795113955       17.3818749347
  H         0.7189976615        4.5198971096       29.0650907546
  H         0.5077184991        5.9711088681       28.1797395428
  C         1.9533170626        6.0221549957       29.9443163670
  C         5.2552884813       -0.9192079798       32.4651741451
  H         6.9748806660        3.1519811240       19.3010198132
  H         6.2252899240        2.2741642358       20.7200264689
  C         5.8998952147        1.4383232380       18.8349552040
  H        11.5043323796        2.5633609167       22.1795184870
  H        12.1016155262        3.0013005159       20.6807278123
  C        13.0996881489        1.3406895393       21.5985676532
  C        10.3033302248        7.6672044795       17.1955003611
  C        10.7678513801        5.5801846284       16.1200947321
  H         2.9601738264        6.3896376396       29.7490358053
  H         1.4025293875        6.9055254835       30.2714140959
  C         2.0531046609        4.9560844921       30.9540429173
  H         5.2643527870       -2.0136941398       32.5307166169
  C         4.9229604860       -0.4820756969       33.7337213952
  H         6.3379055880        0.4028883398       18.6943242713
  H         6.0416080712        1.9032645681       17.8207808179
  C         4.4031671011        1.3574603623       19.0414139485
  H        12.7847679385        0.4266002162       22.1402018581
  H        13.4976716116        0.8635440317       20.7577725367
  C        14.1333822975        2.2067160095       22.2837421492
  N         9.6764805053        8.5317114907       18.0893548811
  C        10.5768528207        8.3049057160       16.0057752435
  C        11.0872846051        6.2341231321       14.9145943010
  H        10.6491385206        4.5459024296       16.1284223070
  H         2.1705786333        5.2767229356       32.0231833480
  H         1.0986543434        4.4314037823       31.1154651162
  H         2.8929484572        4.3133110965       30.7566113344
  S         4.5467068258        1.1800519930       34.3039736081
  C         4.8060306988       -1.4934184894       34.8462529423
  H         4.0245257194        2.1965025933       19.6438089931
  H         3.8443448561        1.4743815971       18.1393943102
  C         4.0317382373        0.0253786120       19.7078757871
  H        13.6153520735        2.8031485286       23.0337445757
  H        14.4951136334        2.8757349569       21.5534122003
  C        15.3462169018        1.3852361880       22.8112765169
  S         9.7333043749        9.9706945513       17.5109537886
  N        10.3740676900        9.6344085304       16.0797210108
  C        10.9897802716        7.6599013525       14.7861469293
  H        11.3882207080        5.6518996207       14.0881195130
  C         4.4078716360        0.5266560999       35.8516365333
  N         4.6080603595       -0.7867351391       35.9493716670
  O         5.2486084220       -2.6431530761       34.8305166060
  H         3.1008450251        0.0383106831       20.2770639776
  H         4.7639168966       -0.2893127515       20.3880678002
  C         3.8998724385       -1.1098548260       18.6474201153
  H        14.9739610074        0.4513390219       23.2786107824
  H        15.9764691178        0.9975403844       21.9535736924
  C        16.3633013125        2.1052406319       23.7144067036
  C        11.1931132416        8.4475658066       13.6151832148
  S         4.1079774883        1.4630047330       37.2956386658
  C         4.6597293754       -1.5287349368       37.2124688191
  H         4.6913300994       -1.0090094319       17.8997237517
  H         4.1470378029       -2.0528453333       19.0695832101
  C         2.4959842440       -1.0011500512       18.0472150028
  H        15.9563835795        2.0974565232       24.7354181621
  H        16.6224283786        3.1813831151       23.6137986970
  C        17.5737878604        1.4724146554       24.0114827124
  H        10.8666747992        9.4685032245       13.6759485905
  C        11.7303325591        8.1658507404       12.3489879405
  H         4.0335169861       -1.0401833933       38.0695885885
  H         4.0628013507       -2.4115614742       37.1326925164
  C         6.0088832795       -1.7496791036       37.7446130507
  H         2.2446596910        0.0724286996       17.8880271973
  H         1.7633439321       -1.3826305942       18.8433407362
  C         2.3375879797       -1.7680131344       16.7317185341
  H        17.8652475426        1.7366146003       24.9630732271
  H        17.2883148489        0.3692406406       24.0336628335
  C        18.5970682337        1.6566021128       22.8863742131
  S        12.4446844580        6.6854556492       11.8133646697
  C        11.6726232514        9.2157659912       11.2282563064
  H         6.5204117508       -0.9192956987       38.2578159279
  H         6.1568570499       -2.7066156170       38.3151256698
  H         6.7494901810       -1.7945006270       36.9589018792
  H         2.6898353050       -2.8223340493       16.7449169949
  H         2.8959083147       -1.2389076883       15.9946216755
  H         1.3083711552       -1.8308816755       16.4664930812
  H        19.6132164783        1.2299244349       23.1431361121
  H        18.7355568242        2.7484149403       22.7993597965
  H        18.3275336485        1.2716013632       21.9081830924
  C        12.6037911193        7.4352440769       10.2432926455
  N        12.2998820697        8.7293394338       10.1308496819
  O        11.2489671854       10.3078462971       11.3656114661
  S        13.0307613909        6.6567068218        8.7933481513
  C        12.3087493041        9.5798037090        8.9362847145
  H        12.3756251254       10.6109578032        9.2556435385
  H        13.1977847698        9.4521840755        8.3426897207
  C        10.9422235247        9.3966703969        8.2026218514
  H        10.1325212333        9.8282332030        8.8135707615
  H        11.0764658429       10.0323727003        7.2876830116
  H        10.8133324417        8.2978856406        8.0746124143
  H        -3.0109895347       15.3579970102       16.5500169807
  C        -3.0030027742       14.2536321838       16.3569657725
  H        -3.8645231934       13.9325974888       16.6986354795
  C        -2.0263479086       13.7359431904       17.4405953052
  C        -2.5561674709       13.7519251474       15.0171670459
  C        -2.3970334192       14.0636222684       18.8762102369
  H        -1.7992555926       12.6880855610       17.3239309655
  H        -1.0951865005       14.3108977290       17.1286929906
  H        -2.6092032771       12.6349098629       14.8681365302
  H        -3.0215314324       14.2255292698       14.2212262129
  H        -1.5345116444       14.0465146665       14.7291115685
  C        -1.6229777544       13.1775405771       19.8928434256
  H        -3.4997100299       14.0118333867       19.0211358765
  H        -2.1965777038       15.1801001012       19.0331397892
  C        -2.1544650166       13.3393034285       21.3173453968
  H        -1.8214004272       12.1583232577       19.7159691847
  H        -0.4821344995       13.4208688815       19.9217596496
  C        -1.1792705084       12.8545810149       22.4371768302
  H        -3.0703026614       12.7182992875       21.5135168506
  H        -2.4593135306       14.3733811512       21.4932399299
  C         0.1059827225       13.7176904248       22.7040602239
  H        -1.7406692492       12.8342743271       23.4474145360
  H        -0.9928354022       11.7778412686       22.4112660723
  C         1.3221049696       13.0034114889       23.4266589107
  H         0.4278896069       14.1468799225       21.7509819649
  H        -0.1557343617       14.5775121282       23.3022181349
  C         1.6588149142       11.6517075510       22.6746626959
  C         0.9327375492       12.2722899579       24.6298414925
  C         2.5603684205       13.9307397259       23.5587835252
  C         1.5679037668       10.5533839324       23.4806921149
  C         2.0903227239       11.3520345432       21.3310318776
  C         1.0640766802       10.9534439278       24.7038072518
  C         0.3712519027       12.8792330966       25.7150798847
  H         2.8210853804       14.2181825529       22.5799242586
  H         2.3173471634       14.8506367505       24.0679584196
  C         3.6989296654       13.2717910096       24.2455811332
  S         2.1274410230        9.1287896081       22.7155333653
  C         2.3246411947       10.0207558748       21.2312457879
  H         2.1926907334       12.1087542353       20.5700038529
  C         0.6584430936       10.3345851199       25.8300390891
  H         0.3276315756       13.9410023716       25.5482040885
  C        -0.0187808506       12.3439812022       26.8641455713
  H         4.0434056662       12.4205013275       23.6076102825
  H         3.3859398378       12.6777098554       25.1165152531
  C         4.9091253022       14.1372480633       24.5717237429
  C         2.7392673893        9.3398433459       19.9833617679
  C         0.1123318449       10.9577726106       26.9759628420
  H         0.7791949798        9.3125752731       25.9012043453
  C        -0.6518163476       12.6996307979       28.0486842044
  H         5.5143100901       13.5575490563       25.3062032652
  H         4.6131074091       15.0744644966       25.1092559964
  C         5.7460357094       14.2986621542       23.3633273223
  C         2.7307647504        7.8938676604       19.8247680310
  C         3.0434701799       10.1918411737       18.7569968397
  C        -0.4094899017       10.2287435674       28.1676795433
  C        -0.8144409607       11.5747696864       28.8824612208
  S        -1.1042483392       14.1356408671       28.7880061845
  H         6.2400859171       15.2258151642       23.4049873144
  H         5.1161022370       14.4557572110       22.4308190420
  C         6.8170214440       13.2147388488       23.2104967738
  N         2.2911098942        6.9831283416       20.7792215241
  C         3.0088976741        7.2732762589       18.5845347663
  C         3.2987057060        9.5021035208       17.5864153612
  H         3.2369156568       11.2181938488       18.7760684777
  C         0.6890371052        9.4690817432       28.9766921254
  C        -1.7235527412        9.3982938232       27.9757716424
  C        -1.2410952864       11.9805351562       30.2054532858
  C        -1.4059279975       13.3361947150       30.3686610381
  H         7.5129578800       13.1965194144       24.0141242132
  H         6.4681230012       12.1903250906       23.1862768227
  C         7.5832829951       13.2448412637       21.8714004718
  S         2.5260511678        5.4639596041       20.2362121739
  N         2.9050720078        5.8453277113       18.6871114784
  C         3.3629108908        8.0017672552       17.4228611967
  H         3.5869577095       10.0600992034       16.7677816785
  H         1.0904488105        8.6369168659       28.3948171781
  H         0.2828713184        9.1220340106       29.9234887596
  C         1.9401658389       10.2241535526       29.2978115355
  H        -1.3691925888        8.6731886818       27.2774813975
  H        -2.0164725006        8.7657376511       28.8640072067
  C        -3.0238095627       10.0969432265       27.5321842522
  H        -1.3113239244       11.2989959564       31.0029113098
  C        -1.6584516809       14.0425728132       31.6384987151
  H         8.4428992670       12.5611348073       21.7811534594
  H         8.0133454574       14.1618509851       21.7257297397
  C         6.7052270503       12.9645429444       20.5769590893
  C         3.5090884487        7.3122119504       16.1874591896
  H         2.4141534133       10.6789762221       28.4602875017
  H         1.4318881141       11.0119927758       29.9134349726
  C         2.9331705079        9.5454327492       30.1900936741
  H        -2.7366244897       10.5927843197       26.5976448700
  H        -3.2941540853       10.8075252397       28.2662763626
  C        -4.2334599548        9.1754680123       27.2127861837
  C        -1.4710902206       15.4190239071       31.8472563678
  C        -1.6999514302       13.2161980871       32.8519872798
  H         6.3119894746       11.9605663341       20.5843789984
  H         5.9063828704       13.6438561358       20.5299562189
  C         7.4295220899       13.0953875159       19.2830003768
  H         3.3402127965        6.2993266850       16.2018695040
  C         3.7565232051        7.6924389965       14.9056585094
  H         3.2478669793        8.6437682721       29.6907587453
  H         2.4397288736        9.2651043318       31.1600265725
  C         4.1128499394       10.4741600441       30.6004015477
  H        -4.0316253543        8.7781918908       26.2073768647
  H        -4.2391051863        8.3388498288       27.8484970409
  C        -5.5092416641       10.0035418437       27.0794958005
  N        -1.4254290808       16.3989316603       30.8307452868
  C        -1.6724105431       16.0384406714       33.0666442845
  C        -1.8340044523       13.8171888821       34.1652257105
  H        -1.7788142745       12.1599820909       32.8193714169
  H         8.4022054214       12.6695470222       19.0288139835
  H         6.8241657281       12.6298753227       18.5139372045
  H         7.4753505121       14.1969629546       19.1063921314
  S         4.1846085444        9.2298427542       14.2938667162
  C         3.8608327491        6.5546536371       13.9256243564
  H         4.5115974933       11.0012684929       29.6710662367
  H         3.7742138676       11.2192268942       31.3331861128
  C         5.1220366356        9.4624550733       31.2516611479
  H        -5.2528117887       11.0306032590       26.9761471085
  H        -6.0503621012        9.8361865871       28.0455357247
  C        -6.1758732094        9.5773138317       25.7080027784
  S        -1.1458336289       17.8839070124       31.5019560913
  N        -1.5621023522       17.4272421005       33.0028985675
  C        -1.9090422039       15.3249759209       34.2937508565
  H        -1.9372227479       13.1045533106       34.9543731358
  C         4.0887840712        8.3802603042       12.7341014948
  N         4.0646919274        7.0494585750       12.7252042725
  O         3.7183182750        5.3678626438       14.1597354803
  H         4.5971019011        8.8099385000       31.9660856937
  H         5.7498288584       10.1598823799       31.8355599836
  C         5.9522867246        8.5246642711       30.2745402667
  H        -5.5435651558        9.7507279597       24.8018552294
  H        -6.2430718861        8.4344763502       25.7406867885
  C        -7.3403892659       10.5724932031       25.4223172938
  C        -2.1377690992       16.0626298739       35.4805379036
  S         4.3031200831        9.2624175682       11.1908558170
  C         4.1413632395        6.2750861660       11.4446417934
  H         5.6264249639        8.6252072366       29.2735039710
  H         6.9562860685        8.9422483938       30.2537869861
  C         5.8694654749        7.0254299284       30.5933177439
  H        -7.5715124010       10.3994839827       24.3820085744
  H        -7.0034293740       11.6043401611       25.4893384552
  C        -8.5220143173       10.4496599389       26.3011106740
  H        -2.0684457452       17.1182689267       35.5477089741
  C        -2.8042988176       15.6569780278       36.6131645452
  H         4.9022980716        6.6199154564       10.7153218523
  H         4.4295309515        5.2269883120       11.7031047104
  C         2.7987341131        6.1951931678       10.9191518498
  H         6.3246248311        6.4417140285       29.7820848123
  H         4.8418025065        6.8738722692       30.6341566368
  C         6.4369239569        6.5784155807       31.9139060029
  H        -8.3137101578        9.9677889026       27.1846136083
  H        -8.8310281674       11.4804861780       26.5517516308
  C        -9.6071583115        9.6084532491       25.7185859260
  S        -3.3648038560       14.0817348066       36.9055095887
  C        -2.9771603570       16.5891431076       37.7642135812
  H         2.4472521938        7.1259824318       10.4520673665
  H         2.8851760046        5.4117760011       10.1916279336
  H         2.0939306024        5.8161325962       11.6011471904
  H         6.0794036556        7.1920872346       32.7533839876
  H         7.5978493513        6.6955561961       31.8869209781
  H         6.2302606271        5.5367272197       32.1822263097
  H        -9.3516342220        8.5631561194       25.8476261564
  H        -9.6309254240        9.8372624448       24.6923592676
  H       -10.6314163698        9.6665443295       26.1944147919
  C        -3.9166086711       14.6627706189       38.4973595136
  N        -3.7284900528       15.9715357848       38.6843868547
  O        -2.6257293439       17.7567840601       37.8018571624
  S        -4.7096683642       13.7055814588       39.7933639391
  C        -3.8855266628       16.6237040438       39.9758958361
  H        -3.9093767506       17.7004825009       39.8501971135
  H        -4.8391371898       16.3971024349       40.4150293402
  C        -2.8107425187       16.1831253418       40.9475623441
  H        -2.0987810083       16.9206250065       41.0319008653
  H        -3.2081759400       15.9963554518       41.9324844240
  H        -2.2274479653       15.3110945579       40.6160953364
