352
 i =    81000, time =    81000.000, E =        25.5068483608
  H        10.4201834065        7.1144384931       31.6666897392
  C        11.3990947046        6.6680213809       31.8218348743
  H        12.1595005637        7.4237750037       31.9831302563
  C        11.8261077471        5.8721423730       30.5993192924
  C        11.3599107615        5.9443044493       33.1337610637
  C        10.7362701424        4.9939805233       29.8569778720
  H        12.3857562630        6.5839339590       29.9483177020
  H        12.5895859667        5.0931247727       30.8626789479
  H        11.8962073922        6.4226853430       33.9693105757
  H        10.3535182705        5.9004216644       33.4461425277
  H        11.7370943450        5.0032228955       32.8505564119
  C        10.0327512061        5.8639259801       28.8395731071
  H        10.0080419886        4.7545828710       30.6245316016
  H        11.0071811097        4.0173602198       29.4973968571
  C        10.7724339846        5.8547663884       27.4536161887
  H         9.0407541760        5.4920085686       28.6014289095
  H         9.7202937492        6.8040932372       29.2047373489
  C         9.8924415988        5.2122809065       26.4033909781
  H        11.6054348224        5.1158994139       27.5683666754
  H        11.2349160017        6.7610261723       27.0933433023
  C         8.6500555092        6.0508672456       26.0252200618
  H        10.4560062362        5.1093239061       25.5375745542
  H         9.6156363600        4.2455996205       26.6968161068
  C         7.4908145634        5.1926207951       25.2903327651
  H         8.0909014427        6.5795613644       26.8012728256
  H         9.1048096005        6.8165700208       25.3330342232
  C         7.2041892604        3.8117098725       25.9243471838
  C         8.0518510697        4.4468321409       24.1146980215
  C         6.2676799624        6.0617762554       24.8452928436
  C         7.4228903169        2.7570979934       25.1354891464
  C         6.7960820091        3.4287680657       27.2210957305
  C         8.0300671546        3.0856081112       23.9979918495
  C         8.5244801395        5.1253346192       22.9939219951
  H         6.1285206696        5.8790078282       23.7909066315
  H         6.5533055578        7.0775707881       24.9465803964
  C         4.9485084456        5.8460703607       25.7284165892
  S         7.0885391834        1.2230412613       25.7989519379
  C         6.7104902572        2.0728275153       27.3802167403
  H         6.6868290878        4.1929059550       27.9772289953
  C         8.3920002278        2.4793670349       22.8599219509
  H         8.5762542492        6.1960512747       23.0745951558
  C         8.9481662250        4.5255976063       21.8509828863
  H         4.7852251822        4.8180338445       25.5862874689
  H         5.0785970368        6.1911561881       26.7579317346
  C         3.7519263161        6.5072900726       25.1568134282
  C         6.2242094034        1.4430352864       28.5937272832
  C         8.8708030840        3.1307569676       21.7122275556
  H         8.2830220086        1.3837868028       22.6447670088
  C         9.3759180266        4.8834538067       20.6064371865
  H         3.4592991411        5.9552796024       24.3298005362
  H         3.9668837173        7.5899375005       24.7604069122
  C         2.5935746434        6.6299370578       26.2215272791
  C         6.1701370427        0.0196203529       28.8843838319
  C         5.6552879428        2.3030306625       29.6554448913
  C         9.0851078582        2.4401861694       20.4110719928
  C         9.4478907242        3.8121722189       19.6911816717
  S         9.6075828671        6.3505409698       19.7545100454
  H         1.6794387350        7.1615055663       25.8326200738
  H         2.9477405348        7.2568341829       27.0573953302
  C         2.0417060727        5.3104832863       26.7427133420
  N         6.5124861550       -0.9226799887       27.8834704109
  C         5.8622540865       -0.4947901869       30.1290907165
  C         5.4020538987        1.7927532436       30.9195170984
  H         5.6239599191        3.3787595926       29.5160967967
  C         7.7081283899        1.7385215565       19.9351827306
  C        10.3664654086        1.5876358964       20.5143522178
  C         9.8777987771        4.1475302949       18.3700501051
  C         9.9692171617        5.4721074714       18.2425018246
  H         1.8221899614        4.7937538722       25.8233101172
  H         2.8531048851        4.8756645476       27.2754321567
  C         0.6501028375        5.4114630102       27.5663794721
  S         6.4652044965       -2.3377352484       28.5876421468
  N         6.1327560300       -1.8461350448       30.1216278309
  C         5.4751718117        0.3295470665       31.2051594560
  H         5.1779955019        2.4435115927       31.6903631748
  H         7.2712805309        1.0739815207       20.7182837723
  H         7.8340818626        1.1264201642       19.0777596233
  C         6.5731687724        2.7385492598       19.6253121016
  H        10.4363017366        1.0084537602       19.5782433701
  H        10.1521457135        0.9305746618       21.2614723911
  C        11.6198806423        2.3435277328       20.7600734503
  H         9.8969782365        3.4183997467       17.5785519171
  C        10.3540710053        6.2381391612       17.0169414157
  H        -0.1265462752        4.6550563673       27.2997600448
  H         0.1947275470        6.4154549099       27.3685957284
  C         0.7508748481        5.2307038169       29.0859385536
  C         5.2605298708       -0.2756821867       32.5161642938
  H         6.8190976083        3.4769939224       18.8650924199
  H         6.4147943918        3.3303883893       20.5136818861
  C         5.2849175425        1.9664339950       19.1938604743
  H        11.4815130206        2.9977447930       21.5894206806
  H        11.9406195492        2.8816683466       19.8296919941
  C        12.8118698127        1.4350549752       21.2148611524
  C        10.3445627129        7.6438234910       16.8124465848
  C        10.7199156253        5.4421976320       15.8237952884
  H        -0.2259973035        4.8080091297       29.5004938202
  H         1.4896628079        4.4724471919       29.3568715808
  C         1.0814884560        6.5348399791       29.8924818134
  H         5.2579656345       -1.3226814713       32.4886231253
  C         4.9570170637        0.1723719332       33.7746177384
  H         4.4815796981        2.6610427529       19.3667498126
  H         4.9979661110        1.2310693883       19.9264986717
  C         5.3030659005        1.3784370182       17.7823545092
  H        12.3929225020        0.8064793642       22.0073237030
  H        13.1048273840        0.7811105163       20.3769345699
  C        13.8963766111        2.3207179785       21.8683437832
  N        10.0924723584        8.5960351651       17.8000144585
  C        10.5372967428        8.2715764780       15.5989155974
  C        10.9375450851        6.0224267180       14.5679765837
  H        10.6941183295        4.3191462165       15.8504687094
  H         0.1541077753        7.0516606117       30.2242938483
  H         1.6065732328        6.3024520662       30.8467001692
  H         1.7487780656        7.1120878128       29.3134804648
  S         4.4869929021        1.7986291332       34.1256062008
  C         5.0675371834       -0.7092401563       34.9052187431
  H         5.5970484175        1.9624189785       16.9858534164
  H         5.9217400973        0.4823397773       17.7960643168
  C         3.9161231601        0.8200892562       17.5428155522
  H        13.3654867166        2.9478409014       22.5582579111
  H        14.2543676713        2.9930911812       21.0960483069
  C        15.0230187064        1.6900197274       22.6042550899
  S        10.2664487420       10.0885713936       17.2604329729
  N        10.5605835102        9.6573386855       15.6903612140
  C        10.8776881741        7.4981309734       14.4658248001
  H        11.3308404049        5.3985308917       13.7948556140
  C         4.3237110403        1.2167636627       35.7284555630
  N         4.7356416614       -0.0250237831       36.0113272307
  O         5.3463700535       -1.9203623538       34.8729807479
  H         3.7581819798        0.8140738800       16.3919648377
  H         3.1078459226        1.4459550889       17.8944833365
  C         3.5362799818       -0.4004808083       18.4153680756
  H        14.5871293767        1.0938788510       23.3639070314
  H        15.4737805064        0.9914043683       21.9292367195
  C        15.9959564709        2.6303256422       23.3204171910
  C        11.2221268512        8.2725246944       13.2835025555
  S         3.8176305610        2.2646183667       36.9846250151
  C         4.6746623637       -0.6622104024       37.3833733874
  H         4.4298074618       -0.9009583031       18.4229177705
  H         3.2979184759       -0.0679779571       19.4142189443
  C         2.3967388882       -1.1671513343       17.7270419067
  H        15.4820951603        3.1455220586       24.1232144799
  H        16.4712794802        3.3203100663       22.6086227981
  C        17.2108259845        1.8170239174       23.8638212178
  H        11.1081361657        9.3602892106       13.3162454739
  C        11.7532521198        7.9480542081       12.0144287223
  H         4.1935675995       -0.0420269697       38.0709487474
  H         4.0211024465       -1.5140005044       37.2749728092
  C         6.0221859397       -1.0914219831       37.9751183979
  H         1.6981718711       -0.4893355216       17.2128696345
  H         1.8315010032       -1.6541050761       18.4611213171
  C         2.9862930142       -2.2365071120       16.8847647344
  H        17.6307570840        2.3432543172       24.7129202650
  H        16.8869802333        0.8223128286       24.1389808864
  C        18.4029754065        1.6751211780       22.9223875444
  S        12.4342401224        6.4373864441       11.4884203737
  C        11.7540812510        9.0093373032       11.0237986189
  H         6.8572399715       -0.5332819892       37.3999722338
  H         6.2345487240       -0.8189290480       38.9813765164
  H         6.2203768900       -2.0837204345       37.7568293443
  H         2.1186574038       -2.8774799242       16.6813783878
  H         3.8207315981       -2.7195732977       17.3757514935
  H         3.3742775162       -1.9615448023       15.9062173347
  H        18.8173723052        2.7054869844       22.5945178649
  H        18.0746972123        1.1732591770       21.9838228793
  H        19.2234873920        1.1076248794       23.3071423544
  C        12.7004587786        7.2836024019        9.9456929619
  N        12.5068859633        8.6073466320       10.0061302785
  O        11.5064778476       10.2059391430       11.2396646157
  S        13.5089368394        6.5559912440        8.5882193546
  C        12.8671243584        9.4458847764        8.8404891975
  H        12.9905661491       10.4390446471        9.2539390746
  H        13.8182840712        9.2204810755        8.3850719113
  C        11.6889545058        9.5429061319        7.8475382315
  H        11.2795454678       10.5545090133        7.6801659667
  H        11.9383127271        9.1035701896        6.9149788094
  H        10.8538414339        9.0161216125        8.2719948670
  H        -1.0960784067       14.5144790960       16.1125238682
  C        -2.1657645355       14.1682991256       16.1955106940
  H        -2.8517158946       15.1076671699       16.2673788410
  C        -2.1942701529       13.3407124907       17.3954274613
  C        -2.5433447749       13.3959690810       15.0070081347
  C        -1.8516477735       14.1279536423       18.6979858747
  H        -3.0900332577       12.8156130054       17.5883652912
  H        -1.3799376248       12.6316587693       17.3275915730
  H        -2.3544648544       12.3516513792       15.0328154545
  H        -3.5650448129       13.4310951521       14.6930967678
  H        -1.9377372558       13.7196161770       14.2224376155
  C        -1.9906872354       13.1328466945       19.8759612682
  H        -2.5017195809       14.9954058321       18.6739878510
  H        -0.8747927791       14.5679867943       18.6913244202
  C        -1.9515366073       13.7647677599       21.2941527879
  H        -2.9813047078       12.6576345883       19.8040840297
  H        -1.2014394260       12.3443427646       19.8147096713
  C        -1.0148855060       13.0682286831       22.3711704913
  H        -3.0253072791       13.6848444569       21.6389607995
  H        -1.6777388863       14.8464904075       21.1979127555
  C         0.3430885652       13.8393094312       22.5336994349
  H        -1.5632657170       13.0061661696       23.3301756929
  H        -0.8623887863       12.0173318692       22.2257337107
  C         1.4684068086       13.0163546717       23.2166387168
  H         0.7175855373       14.0645426040       21.5538980231
  H         0.0216215546       14.7744577619       23.1194362435
  C         1.7732999911       11.6781077735       22.5008018298
  C         1.0561900235       12.3590529653       24.4640661063
  C         2.7845371297       13.8708585374       23.3500805627
  C         1.4806365025       10.6114727759       23.3526169760
  C         2.1625015073       11.2691435324       21.2269497243
  C         1.0683871217       11.0126696950       24.6342811320
  C         0.6119896740       13.0122065729       25.5890445721
  H         2.9802383559       14.3913197723       22.4693943983
  H         2.6197588497       14.6657717923       24.0817242442
  C         3.9992477652       13.2285440835       23.8498158745
  S         1.7800435378        9.0527146072       22.4477350560
  C         2.3040348998        9.8870421920       21.0555405306
  H         2.3353532215       12.0337243934       20.4884354371
  C         0.6760264093       10.4257907920       25.7810256176
  H         0.5948817189       14.0660616617       25.4760952964
  C         0.2020975442       12.4563207973       26.7498928022
  H         4.2931655832       12.4226434353       23.2051737519
  H         3.8492845246       12.7031501247       24.7128636120
  C         5.1932255479       14.1208024618       23.9720969308
  C         2.7251485223        9.2013872499       19.7785508699
  C         0.2006979813       11.1039675641       26.9016668608
  H         0.7604562684        9.3160872406       25.8069010753
  C        -0.2500071496       12.8605799261       27.9782063385
  H         5.8447321988       13.5127954832       24.6149588333
  H         4.8852580000       15.0195317969       24.4160370648
  C         5.7297844949       14.5407746569       22.5631568474
  C         2.7046282795        7.8216571910       19.5122699775
  C         3.2807616281       10.0586802240       18.6854609211
  C        -0.1971151241       10.4825133753       28.2511924254
  C        -0.3546932272       11.8307118211       28.9229131156
  S        -0.6118914652       14.3332840173       28.7305292098
  H         6.5075833406       15.3214526974       22.6074364703
  H         4.9079329986       14.9797169032       22.0136930228
  C         6.5263086055       13.4073614356       21.8686521721
  N         2.2271962767        6.8089528390       20.4289195548
  C         3.0779977972        7.2931479673       18.2855193216
  C         3.7321863067        9.5136432885       17.5008944837
  H         3.4060222168       11.1048924104       18.8945366994
  C         1.0000800439        9.6854737879       28.8862594444
  C        -1.5347102309        9.6769968123       28.1541862536
  C        -0.6260734000       12.2685780368       30.2246442281
  C        -0.8064382517       13.5918096564       30.2830778942
  H         7.1984122091       12.9534900364       22.7261034903
  H         5.9390183489       12.6101900593       21.3742143257
  C         7.6035575211       13.7294480902       20.8112072755
  S         2.3120615546        5.3755963628       19.6314950813
  N         2.7221345180        5.9123950015       18.2042369239
  C         3.5332796747        8.0650568321       17.2413372118
  H         4.1254253248       10.1526260611       16.7591382471
  H         1.2642786631        8.7523256253       28.2670141821
  H         0.7834552115        9.3560670731       29.9317575381
  C         2.2795829603       10.4978075564       29.0233420811
  H        -1.3680099920        8.9299301617       27.3305301674
  H        -1.7515386187        9.1849610156       29.0854826610
  C        -2.7837130423       10.6125920060       27.8660641754
  H        -0.7489811601       11.5338744757       30.9751574162
  C        -1.2164421198       14.3180820772       31.5088075553
  H         8.0164814157       12.6802159168       20.7096057886
  H         8.4555779748       14.5064582553       21.0078942247
  C         7.0565971367       13.9773947604       19.3562476794
  C         3.7743272799        7.5239174578       15.9454226203
  H         2.6531694120       11.1315447940       28.2519017825
  H         2.0268735840       11.1854506053       29.8248166634
  C         3.4302601781        9.6511752428       29.6383578964
  H        -2.4860914296       11.3583186169       27.1798144971
  H        -2.9177661201       11.2190550664       28.7676206392
  C        -4.0591066237        9.9374599391       27.3691027291
  C        -1.3117054255       15.7163990957       31.6225490602
  C        -1.5432154059       13.5835862386       32.7238260271
  H         6.2676750630       13.3708750043       18.9652971162
  H         6.5859600863       14.9618076789       19.5129185091
  C         8.1477960158       14.1740705510       18.2313600439
  H         3.7530391665        6.4112600612       15.9486952930
  C         4.0362035580        8.0237764854       14.6493645432
  H         3.5887483598        8.8140034875       28.9938024434
  H         3.2006210740        9.3079751121       30.6245261953
  C         4.7554991329       10.3210079014       29.6014547742
  H        -3.8048876837        9.2695324815       26.4935198307
  H        -4.4866529924        9.3499715963       28.1377201081
  C        -5.0422974887       10.9229331229       26.8493614193
  N        -1.0645883144       16.5622056231       30.5244457109
  C        -1.7128654611       16.4316398061       32.7487055748
  C        -1.8972792171       14.2851230475       33.8939564592
  H        -1.4715417116       12.5052487027       32.8143021480
  H         8.0489668971       13.2823691795       17.6136832884
  H         7.8590991075       15.0581748791       17.7589972718
  H         9.1389593004       14.2857231121       18.7279325125
  S         4.2033221890        9.6880206710       14.2388814271
  C         4.2717185291        7.0783596263       13.5834703811
  H         5.0354780960       10.5977602954       28.5860525328
  H         4.6332073628       11.3476203344       30.0572861469
  C         5.8808224434        9.7016278356       30.4703553005
  H        -4.6034865388       11.3349095658       25.9427287710
  H        -5.2588647798       11.7157400508       27.5471419300
  C        -6.3948842195       10.2427682249       26.5035453672
  S        -1.2706489329       18.1222359142       31.0173454528
  N        -1.7871425651       17.8370604557       32.5334653877
  C        -1.9681071167       15.7543110996       33.9608170726
  H        -2.0752066335       13.7319846609       34.7409972716
  C         4.2922677404        9.1061147509       12.5951539515
  N         4.5426700657        7.7320570770       12.4611363943
  O         4.4129767682        5.8137317015       13.7114532139
  H         5.4027727213        9.3501646683       31.4050109481
  H         6.6092163198       10.4540136773       30.6901828539
  C         6.6257247609        8.5891841485       29.8068440737
  H        -6.1072267179        9.2796966828       26.1969247914
  H        -6.8763125474       10.1190492803       27.4116877306
  C        -7.2025467841       10.9810561210       25.4278382056
  C        -2.3271346268       16.4573279958       35.0399497361
  S         4.6371845217        9.9739087053       11.1390145041
  C         4.7349152413        7.0800576892       11.1922628724
  H         6.6389461804        8.7684311392       28.7354510375
  H         7.6534413930        8.6484872829       29.9904914837
  C         6.1008594704        7.1847917308       30.0674403976
  H        -6.4910533535       11.1576276409       24.6251164321
  H        -7.4854145166       12.0191439609       25.7503712472
  C        -8.3485829894       10.2144974066       24.8286606235
  H        -2.2341302720       17.5072503040       34.8938239923
  C        -2.8535479931       16.1717618604       36.2951198488
  H         5.5151274027        7.5135723500       10.5792072482
  H         5.1150948092        6.1024365011       11.3832460496
  C         3.3405200540        6.9097883603       10.4826289945
  H         6.4497576412        6.4730817313       29.2478332618
  H         5.0245819360        7.1808563871       29.9806215423
  C         6.4281379651        6.6681196260       31.4426501587
  H        -8.7084131565       10.7632160664       23.9400867473
  H        -8.1514646502        9.2393667507       24.4211704254
  C        -9.6091050127       10.0463640340       25.5955548375
  S        -3.2587231597       14.6278224436       37.0248976753
  C        -3.0782715487       17.3494869963       37.1800964755
  H         2.4889288861        7.3081300718       11.0769212950
  H         3.4116589348        7.3990226072        9.5134184777
  H         3.1167720574        5.8480844373       10.3194137899
  H         7.4151337802        7.0036198420       31.6078395041
  H         6.3822573561        5.5581414579       31.4154626818
  H         5.9264526584        7.0698538249       32.2812338582
  H       -10.4376785495        9.8915443331       24.9136034877
  H        -9.8480296743       11.0212575517       26.0071929946
  H        -9.6156002154        9.3799517424       26.4778260585
  C        -3.8379816367       15.5529280922       38.3989819023
  N        -3.6194053597       16.8809364693       38.2893671574
  O        -2.6720145784       18.5219184409       37.0039979037
  S        -4.1092726477       14.8559177182       40.0049407543
  C        -3.7408624406       17.7224576782       39.4415621915
  H        -4.0069638317       18.7583958998       39.1900565724
  H        -4.4653036323       17.3696400248       40.1313883982
  C        -2.4587897140       17.6952330506       40.2714599679
  H        -2.5484844187       18.3569884152       41.1743242936
  H        -2.1404922397       16.6673914680       40.7175180846
  H        -1.6667195159       18.1276214045       39.7179920615
