352
 i =    53400, time =    53400.000, E =        24.7285842894
  H        12.1916695373        5.3205980117       32.4420960016
  C        11.1928920517        5.4692147375       32.7137712665
  H        10.7448956048        4.5070949102       32.6686566393
  C        10.6461204779        6.4628192298       31.6840898290
  C        11.1061299959        6.0392246601       34.1310233810
  C        11.1362930153        6.1904619506       30.2279678233
  H         9.6150445840        6.2601169565       31.5681289648
  H        10.8842014163        7.5404591888       31.9805276538
  H        10.2870374001        6.6684796201       34.3707931286
  H        11.1633049094        5.3034907276       34.9365027856
  H        12.0887127311        6.4047153858       34.4002444174
  C         9.9792910240        6.1113241053       29.1627802297
  H        11.6793331241        5.3289206309       30.2006080313
  H        11.7474866404        7.0762361550       30.0025071819
  C        10.6752201868        5.7061598958       27.8318225054
  H         9.1856070965        5.4871372465       29.4973627198
  H         9.5170322064        7.0598384841       29.0069958905
  C         9.7312374620        5.0498915968       26.7362388658
  H        11.4083316805        4.9243300786       28.1274057672
  H        11.2464842982        6.5988383023       27.4303850950
  C         8.5062601591        6.0012281468       26.3664649664
  H        10.2554126883        4.7999612911       25.8111941024
  H         9.3846481250        4.1494352691       27.2623687735
  C         7.3948145906        5.2822317018       25.5387245927
  H         8.0347078079        6.3093054710       27.2917832996
  H         8.8489760818        6.9387420612       26.0051408428
  C         7.0483651830        4.0053246565       26.2892519405
  C         7.8011525169        4.5585417747       24.2987563395
  C         6.0713852283        6.1247178873       25.3315644689
  C         7.1932495807        2.9057016718       25.4494113605
  C         6.6644864301        3.6396605589       27.5399300472
  C         7.7101015016        3.2119430485       24.2287846550
  C         8.1588646021        5.2403468897       23.1979621774
  H         6.1894001562        6.8258327730       24.5097867477
  H         5.7211022078        6.6449941345       26.2137898981
  C         4.9330747537        5.2859385856       24.7624632985
  S         6.8559742345        1.4242306185       26.3127993516
  C         6.4625307583        2.3184278265       27.7213619760
  H         6.5635254244        4.4684451233       28.2629446091
  C         8.0928993211        2.6163081414       23.0471114446
  H         8.0623076446        6.2767854620       23.0689428280
  C         8.5090603421        4.6421104301       22.0092768635
  H         5.0478892737        5.1278140686       23.6837236829
  H         4.7446905175        4.2607066952       25.1817213001
  C         3.5580867878        6.0663499269       24.9399227835
  C         6.0676581877        1.6931444127       28.9999360401
  C         8.5186526035        3.2886625069       21.8897136801
  H         7.9789358099        1.5693759719       23.1056285407
  C         8.9020371175        5.0556072557       20.7618302770
  H         2.8439593766        5.4775746370       24.4317410884
  H         3.6149093407        6.9682678043       24.4046362544
  C         2.9580101057        6.3285886309       26.3166871280
  C         6.0819022705        0.2529722553       29.2476258384
  C         5.6018534035        2.4765857845       30.1265277624
  C         8.8101268609        2.5275205674       20.5795961593
  C         9.0180779189        3.9336766041       19.9031523803
  S         9.2240266049        6.5337255123       19.9368074926
  H         2.2941383731        7.2074942914       26.2558937791
  H         3.7191242330        6.6506353135       26.9267399609
  C         2.1458938390        5.0407385525       26.8015576383
  N         6.4807473009       -0.7268431917       28.2744837115
  C         5.7904650356       -0.3576377372       30.4766097916
  C         5.3563863834        1.8141205941       31.3879254723
  H         5.6434879638        3.5359049690       30.0226316563
  C         7.6346054902        1.6636006583       19.9792001696
  C        10.1732230986        1.6644881918       20.7793399580
  C         9.3988922659        4.3130287598       18.6190819768
  C         9.5867688482        5.6939412811       18.4859847912
  H         1.4063897362        4.6974637619       26.0892400348
  H         2.8072851172        4.1657512591       26.9091175820
  C         1.3913838796        5.1641788462       28.1286447183
  S         6.4705427390       -2.1725688168       29.0533407610
  N         5.8219614218       -1.7688498509       30.4253892252
  C         5.4910264980        0.3689357284       31.6153325549
  H         5.1080875701        2.4147216407       32.2241528145
  H         7.3280448432        1.0601742132       20.7353082518
  H         7.8895670975        1.2031109497       19.0403358536
  C         6.4574859915        2.5611993600       19.8699797650
  H        10.4101154376        0.8942830701       20.0626027440
  H        10.1961249651        1.1479627634       21.7254344627
  C        11.4587755763        2.5010009891       20.9329443479
  H         9.5634526899        3.5049433559       17.9165281835
  C         9.9058262684        6.5410562021       17.2354205612
  H         0.9870249802        4.1491105183       28.3662808665
  H         0.5281389874        5.7966671739       28.0989409551
  C         2.2906002262        5.4802975981       29.3499848258
  C         5.3908547851       -0.3112674725       32.9045616778
  H         6.6419836663        3.2800245932       19.0747137282
  H         6.2775894341        3.0514889789       20.7819047042
  C         5.2492275816        1.7915663489       19.3017948475
  H        11.4269381445        3.0059699586       21.8382829687
  H        11.6272884279        3.2366564537       20.1562525133
  C        12.7435786622        1.5846454184       21.0039284949
  C        10.0194446587        7.9551790936       17.1468640770
  C        10.1138762558        5.8337040375       15.9665350773
  H         3.1099045828        4.7768765389       29.4523682173
  H         2.6001529059        6.4831724441       29.2201747491
  C         1.3563949154        5.5927421990       30.5184788190
  H         5.5483081938       -1.4007456828       32.8357324599
  C         5.0303934940        0.1586478478       34.1657784200
  H         4.7933822988        1.1732433391       20.0725927227
  H         5.6218225040        1.0747174368       18.5991019014
  C         4.1319240452        2.5729775941       18.5056458206
  H        12.7481195178        1.2006650403       22.0392276011
  H        12.7440929433        0.7604899018       20.3128024314
  C        13.9867233503        2.4364806988       20.7683391348
  N         9.9282028259        8.8103013544       18.2589059262
  C        10.3843980358        8.5970176196       15.9863854554
  C        10.5153132129        6.5225364091       14.7606136507
  H        10.0435325555        4.7111123039       15.8201219701
  H         1.7843392884        5.3133099917       31.4593448336
  H         0.8921346300        6.5437200420       30.6605094396
  H         0.5742770949        4.8539531642       30.3993970421
  S         4.6004437239        1.7541014461       34.6243911667
  C         4.9494914761       -0.8211776178       35.2726837954
  H         3.8622906704        3.5077934384       19.0028713802
  H         4.4713796989        2.9273023053       17.5265767620
  C         2.8495205037        1.8404738283       18.3499811963
  H        13.7789928622        3.3455599347       20.1602935278
  H        14.7437223899        1.8329023861       20.2512512923
  C        14.5463887213        2.9512395130       22.1653672621
  S        10.2389019060       10.3225897337       17.7453796753
  N        10.5289287906        9.9925885009       16.1403455772
  C        10.7340767919        8.0018157497       14.7623104294
  H        10.7264755366        5.9146099184       13.9038069202
  C         4.2853866660        1.0756286654       36.2137544083
  N         4.5001694900       -0.2255963041       36.3981500226
  O         5.1236054255       -2.0385585475       35.1673434436
  H         2.1105460199        2.5256058614       17.9978105428
  H         2.4060231177        1.5225311719       19.3444777308
  C         2.9716422092        0.6436863209       17.4122408433
  H        15.0812509647        3.9181531345       22.0140659694
  H        13.7268355192        3.1746912944       22.8075851945
  C        15.4761634754        1.9983923864       22.8636724605
  C        10.8812297984        8.7837751799       13.6332002954
  S         3.8551232142        2.0281833115       37.6792427103
  C         4.3389576181       -0.8923226367       37.7228406010
  H         2.2580969301        0.7237035249       16.6389849347
  H         3.9268888197        0.5461327866       16.9454234688
  C         2.6300216740       -0.7092745932       18.0935500687
  H        14.9926393524        1.0175037867       22.8821935249
  H        15.6024368279        2.2353966111       23.9144723160
  C        16.8486226034        1.9375138964       22.1000826550
  H        10.7650563188        9.8954460471       13.6644535099
  C        11.2945037730        8.4440630884       12.3680346844
  H         3.5373900973       -0.4942501154       38.3809574441
  H         3.9224078363       -1.8914626726       37.4201603951
  C         5.6669117854       -1.0261578439       38.3625010193
  H         1.7923054874       -0.6411985742       18.8362633590
  H         3.4982776906       -0.9549995196       18.7121521194
  C         2.3408201783       -1.8374475268       17.0884844150
  H        16.9894889780        0.9661142326       21.6658611050
  H        16.8904090535        2.7109317483       21.3251952137
  C        17.9962302668        1.9969405757       23.1249880568
  S        11.7099260596        6.8958682313       11.7860512463
  C        11.4575095482        9.5014961712       11.3835773336
  H         5.8543432469       -0.2989317877       39.2150168785
  H         5.6405260835       -1.9806823239       38.9410872931
  H         6.3829878908       -0.9832842531       37.6554995200
  H         1.5753559370       -1.6199236460       16.3678775892
  H         2.1519776948       -2.8090868706       17.5773884937
  H         3.1916966222       -2.0328994432       16.4190812240
  H        17.7364874610        1.3127404272       23.9261334315
  H        18.0671017452        3.0221131247       23.5717724215
  H        19.0234116549        1.6953563645       22.7901369474
  C        12.0440901765        7.6488518474       10.2116180389
  N        12.0151523118        8.9959718219       10.2398592296
  O        11.2528860864       10.7417025973       11.5726950999
  S        12.3931682516        6.7850422652        8.6829668354
  C        12.1860879769        9.8293831908        9.0162436097
  H        12.5454297348       10.8666956174        9.2614473064
  H        12.9948372740        9.4045951483        8.4342415001
  C        10.9301017437        9.6815633436        8.2938138007
  H        10.2278025575        9.1131259552        8.8383846901
  H        10.4479376540       10.6571968131        8.0197551134
  H        11.1365576248        9.1468354379        7.3306872597
  H        -2.0685140317       12.5979025922       16.9378259281
  C        -1.7986161054       13.5738486092       16.6811326836
  H        -0.7384207649       13.7188533123       16.9417195729
  C        -2.5789199802       14.5806762493       17.5771582363
  C        -1.9483786639       13.9638631144       15.2204836073
  C        -3.0189508741       13.9363395822       18.9200048564
  H        -1.8629666820       15.3561724728       17.6147079402
  H        -3.4203560837       15.0550581030       17.0580289045
  H        -1.5068636187       14.8601037355       14.9762846696
  H        -1.5226522982       13.1392231667       14.6110205936
  H        -3.0009050802       14.1228661790       15.0577995234
  C        -1.8079780135       13.5004021599       19.8274851896
  H        -3.7140952747       13.1298327613       18.9222545816
  H        -3.5007501680       14.6461707344       19.6009923121
  C        -2.2214114441       13.4043233297       21.3107681076
  H        -1.3775925912       12.6189425391       19.5509868475
  H        -1.0057156184       14.2119110804       19.7873708834
  C        -1.2381608443       12.7658219781       22.1795186306
  H        -3.1361000289       12.8158282971       21.3468221590
  H        -2.4695502660       14.4406663635       21.7221493744
  C        -0.1609262028       13.7174870973       22.7648919089
  H        -1.6589983064       12.2190040947       22.9546180664
  H        -0.6879258047       12.0349790371       21.6608915082
  C         1.1338225948       13.1577277607       23.4374294195
  H         0.1295380081       14.4281385846       21.9874328514
  H        -0.6634850936       14.3299569975       23.4987621743
  C         1.5694480399       11.8685705883       22.7364158254
  C         0.7911063187       12.3595195991       24.7152540294
  C         2.2566204347       14.2651922135       23.6075236744
  C         1.4253769919       10.7578421712       23.5011532531
  C         2.0928320346       11.5375909880       21.4310611267
  C         0.8985032974       11.0683323379       24.7442186687
  C         0.2525667808       12.9360300856       25.8738532198
  H         2.1131165115       14.9106151616       22.7430304685
  H         1.9375699312       14.9063444459       24.4976864615
  C         3.6638620904       13.6844598225       23.6799647198
  S         1.9376874078        9.3142857460       22.7171100286
  C         2.3125064188       10.1909606814       21.3284160037
  H         2.1467955557       12.2644191439       20.6149518801
  C         0.5311338985       10.3714256168       25.8382823667
  H         0.0827698270       13.9805533257       25.9269598492
  C        -0.1817298540       12.2255035043       26.9258333926
  H         3.9964578075       13.4114644360       22.6609994650
  H         3.7125200853       12.7252659162       24.1286203246
  C         4.7725423236       14.6025646763       24.2443783240
  C         2.6913871704        9.5447813646       20.0338241908
  C        -0.0606540941       10.9237531092       26.9957094427
  H         0.4895429547        9.3420826608       25.7363735021
  C        -0.6275141651       12.5982994028       28.1637366656
  H         5.0115499267       14.2992455904       25.2627307141
  H         4.3416026851       15.5019163068       24.4896344324
  C         5.9158831989       14.7768243688       23.2425225739
  C         2.5866059783        8.1813157028       19.7135301855
  C         3.1327658278       10.4028904537       18.9083116026
  C        -0.4380422474       10.0970640239       28.2056050007
  C        -0.6729496467       11.4974722703       28.9432178261
  S        -0.9309736457       14.0876453992       28.9481732671
  H         6.6598082105       15.3908301857       23.7344651351
  H         5.5291950012       15.2681864634       22.3570987211
  C         6.6129270172       13.4503940798       22.9453035718
  N         2.0667539736        7.1531302682       20.5481214863
  C         2.7601402003        7.7228815458       18.4180695553
  C         3.3897288498        9.9034008593       17.6561201089
  H         3.3468530277       11.4951147273       19.0484889283
  C         0.6761910983        9.1533676935       28.6368953812
  C        -1.7900532063        9.3816671084       28.0756657701
  C        -1.0578029409       11.8645033212       30.2859204101
  C        -1.1865311225       13.2337346134       30.4585008038
  H         7.1016597459       13.1831125105       23.8514589641
  H         5.8957471913       12.6447383895       22.9239056652
  C         7.4884425162       13.2573832064       21.7273714554
  S         2.2261927880        5.7669547874       19.7242328600
  N         2.7002385662        6.3765635048       18.3171256838
  C         3.1232716822        8.5078833041       17.3002342307
  H         3.7098253709       10.5811243297       16.9528588311
  H         1.1129423023        8.6172712353       27.8173476330
  H         0.1922263131        8.4997741036       29.3552499998
  C         1.7352745563        9.9307802464       29.4360157679
  H        -1.6767555407        8.4446962834       27.4693402222
  H        -2.1417000049        9.1291722828       29.1507085320
  C        -2.9755414073       10.1416285956       27.5963653981
  H        -1.2196908133       11.0844212202       31.0573392561
  C        -1.3992835371       13.9874854605       31.7673398741
  H         8.0386192716       12.4138644101       22.1082657118
  H         8.1805259067       14.1182338836       21.6309684661
  C         6.7200807787       12.8887814364       20.4622753243
  C         3.4168366249        7.7876050002       16.0267617024
  H         2.1744848890       10.6366259700       28.7198128187
  H         1.2912470475       10.5136221412       30.2640018257
  C         2.8105667035        8.9979587867       29.9924871276
  H        -2.9834119614       10.2279723273       26.4924428398
  H        -3.0802731784       11.1830687092       27.9128612585
  C        -4.3189604917        9.4915843292       27.8608412423
  C        -1.5245631988       15.4019181065       31.9103028493
  C        -1.7065493265       13.1972600129       33.0113339278
  H         7.1622757798       12.0216005283       20.0201844336
  H         5.7145881612       12.6099873783       20.5187739937
  C         6.8624053930       13.9788591621       19.4649406375
  H         3.4479437854        6.7199910925       16.1473290327
  C         3.8559275046        8.2737585273       14.8321827699
  H         3.3472065746        8.4257680471       29.2140042530
  H         2.3996910580        8.2360957367       30.6535005481
  C         3.8955576839        9.7585017770       30.7598440633
  H        -4.4326989134        8.6165309640       27.2073033042
  H        -4.1993160080        8.9794101671       28.8024210589
  C        -5.5825800768       10.2851360064       27.6677762795
  N        -1.1838445767       16.3556367361       30.9820642000
  C        -1.8843405507       15.9641308759       33.1153488124
  C        -2.1056829675       13.7695415226       34.2292165549
  H        -1.6812407642       12.1103813861       32.9668422510
  H         6.2332029192       14.8246708302       19.7973817806
  H         7.9560204398       14.3688473025       19.5529229452
  H         6.5199000627       13.6614247053       18.5055299417
  S         4.1041672053        9.9609512907       14.3781299464
  C         3.9869429335        7.2670780601       13.7789870661
  H         3.9021366889       10.7618913230       30.3861753165
  H         3.6127386605        9.8208560701       31.8001685957
  C         5.3365031998        9.1661635804       30.5627088307
  H        -5.5978994588       11.0933605974       28.3966700450
  H        -6.3841631728        9.6466005954       28.0196080999
  C        -5.8125883260       10.7615513815       26.2560889888
  S        -1.4603529584       17.8928359756       31.6019873116
  N        -1.9306657554       17.3855701729       33.0460889748
  C        -2.1694377772       15.2544356464       34.3076399968
  H        -2.1812909122       13.1942681254       35.1304949212
  C         4.2479525471        9.2943447875       12.7394625070
  N         4.2906714753        7.8988610321       12.6511230320
  O         3.6693360849        6.0801065305       13.8237479394
  H         6.1964839173        9.8622437421       30.7500895439
  H         5.5340157482        8.7302295183       29.5418424912
  C         5.4991146380        8.0856028705       31.6387446277
  H        -5.2587890620       11.6112368811       25.9879796113
  H        -5.6327331631        9.9750417006       25.5752343499
  C        -7.2558849427       11.1412218819       25.9796475863
  C        -2.4239517040       16.0521080962       35.4412768927
  S         4.5910578689       10.1695347942       11.3289800132
  C         4.2117357084        7.1867205905       11.3669654106
  H         6.2934427290        8.3600705599       32.3559573787
  H         4.6802172834        7.8823704706       32.2959572987
  C         5.9075263034        6.7366426801       31.0124929078
  H        -7.2580912045       11.8238071367       25.1338672136
  H        -7.5260739765       11.6094728978       26.8646666198
  C        -8.0893148985        9.8153700793       25.6969285224
  H        -2.0322875542       17.1111001761       35.4498136222
  C        -3.0137742099       15.7674709243       36.6519877368
  H         4.8289077585        7.5855389523       10.5986670515
  H         4.5673996500        6.1861220369       11.5573805223
  C         2.8106772782        7.0030061655       11.0033450565
  H         6.7665178807        6.8718590665       30.4415446968
  H         5.1894390936        6.2678456093       30.3066471741
  C         6.1519324191        5.5797104301       31.9585333016
  H        -7.7529000852        9.5443602545       24.6805386746
  H        -7.7647456370        9.1361209567       26.4737520366
  C        -9.4901544125       10.1855819166       25.5816961247
  S        -3.6425584812       14.2727741575       37.1579965341
  C        -3.0344194357       16.8550700521       37.6580343527
  H         2.6901546011        6.5893857118        9.9841209393
  H         2.2824153669        6.3830303577       11.6743749742
  H         2.2747242078        7.9026307537       10.9739058151
  H         6.4630069315        5.9091623821       32.9447425509
  H         6.9327442325        5.0059918140       31.5162606463
  H         5.2686243125        4.9668961217       32.0798692197
  H        -9.8215561880       10.8863857654       26.3451785133
  H       -10.1624222631        9.3301201503       25.6432399845
  H        -9.6979621005       10.7025704288       24.6191444034
  C        -3.8452984741       15.0904634018       38.7051110385
  N        -3.6209004205       16.4212046588       38.7520358161
  O        -2.6283420516       17.9741625826       37.5291696821
  S        -4.3513991946       14.3151459862       40.1917725793
  C        -3.5896692597       17.2788384022       39.8935162868
  H        -3.8663761423       18.3270148228       39.6288151456
  H        -4.4103282699       16.9880820449       40.5343885690
  C        -2.3078308928       17.0050912527       40.6735271749
  H        -1.3988165935       16.9611990724       40.0776398297
  H        -2.1503526583       17.8034384037       41.4090063319
  H        -2.2761898904       16.0644466406       41.2135376244
