352
 i =    48400, time =    48400.000, E =        24.8093145050
  H        11.3313234185        7.0988057798       32.0393648158
  C        11.0885795382        6.0277739679       32.0815619848
  H        11.9541233428        5.4066361025       31.7237842950
  C         9.9562376524        5.6941290082       31.1402813374
  C        10.8164231118        5.5354190581       33.5159101054
  C        10.1433531358        6.3430978038       29.7841991666
  H         9.9349243389        4.6515775310       30.9447204585
  H         8.9899766782        5.9551380923       31.6597789301
  H        11.7735437311        5.7023442078       33.9987420446
  H         9.9936627457        6.0880967920       33.9421128021
  H        10.5835292441        4.4372352701       33.6424470053
  C         9.4073781955        5.5710029958       28.6608715519
  H        11.1587420142        6.3300448026       29.4148857424
  H         9.8362792937        7.3567988295       29.7537517495
  C        10.0804000282        5.6836514453       27.2425190827
  H         9.5337792276        4.5480658164       28.7942781506
  H         8.3336069533        5.7123016424       28.6415432884
  C         9.1487398480        5.0910848093       26.2528258867
  H        11.0084761155        5.0577423304       27.2817782413
  H        10.3786625046        6.7285894395       26.9889765969
  C         7.9321285037        5.9342151530       25.9385601874
  H         9.5940179110        4.8278780734       25.3410443322
  H         8.8388948663        4.1872095097       26.7131383588
  C         6.7914068557        5.2159466112       25.2538878021
  H         7.4308658486        6.1865843945       26.8819326000
  H         8.2388079645        6.8668835492       25.4964500443
  C         6.5093801719        3.8368826165       25.9788882865
  C         7.3240797998        4.4961795275       24.0649393502
  C         5.5413993897        6.0839701230       24.9117824997
  C         6.7174931363        2.6991526176       25.1936963868
  C         6.1111282334        3.3895514882       27.2324778184
  C         7.2516887262        3.1043719032       23.9559988556
  C         8.0383568745        5.0902438491       23.0320192449
  H         5.7834111206        6.8651825892       24.1780670336
  H         5.3081548031        6.6522731039       25.8116709739
  C         4.3096258679        5.2989243859       24.4241758360
  S         6.3628998968        1.1217361098       26.0138199759
  C         5.9832366681        2.0510625137       27.4100044074
  H         5.9355691462        4.1238684369       28.0242707452
  C         7.6910015322        2.4028616925       22.9187098553
  H         8.1172770951        6.1644310110       23.0400045592
  C         8.4795088442        4.4352014986       21.9468396855
  H         4.4395210686        4.7078190110       23.5193941499
  H         4.2539822292        4.4159434244       25.0824665965
  C         3.0656932567        6.2498589848       24.4325450579
  C         5.6461948285        1.3681500442       28.7189310497
  C         8.3263633740        3.0842405588       21.8446691322
  H         7.7497865412        1.3853975908       22.9138931794
  C         8.9976965553        4.7698563598       20.7004839677
  H         2.2195569302        5.9451454692       23.8316226752
  H         3.3220000361        7.2212548328       24.0428381117
  C         2.5115940191        6.5689585066       25.8527061022
  C         5.7290391974       -0.0657732795       28.9577033878
  C         4.9628512238        2.2101608239       29.7787952390
  C         8.7981442137        2.3297781393       20.5703618002
  C         9.1285084746        3.6389469391       19.8875273270
  S         9.3644926706        6.2441420175       20.0193265032
  H         1.6994644960        7.2648628690       25.5746653110
  H         3.2936265788        7.0431075421       26.4564287183
  C         1.8071858907        5.3326507031       26.3758737818
  N         6.1807213155       -1.0548358538       28.0984085963
  C         5.4057753344       -0.5976682557       30.1852425936
  C         4.8084821272        1.6579084429       31.0227249120
  H         4.9158401951        3.3578020019       29.6813892888
  C         7.6762704999        1.5727551246       19.7915392424
  C        10.1018684249        1.5204968463       20.7800983864
  C         9.5901547696        4.0862783099       18.6031272305
  C         9.6713225302        5.4409049782       18.4823667120
  H         1.1343295525        4.8760416575       25.6846895586
  H         2.5587603809        4.5722332865       26.4703646710
  C         1.1747477104        5.3825542350       27.7900010973
  S         6.0761759400       -2.5099496494       28.8465541345
  N         5.4706664332       -1.9957582878       30.2592888081
  C         5.1129218180        0.2226463922       31.3080002981
  H         4.5923292531        2.3584273898       31.8543809063
  H         7.2258546993        0.7333591622       20.3521779975
  H         8.0642850408        1.1628243192       18.8873646545
  C         6.6163648031        2.5136549452       19.2752698139
  H         9.9088084740        0.5932765189       20.1558451895
  H        10.2283601661        1.2266265154       21.8866219412
  C        11.4255950609        2.2227767303       20.5140736875
  H         9.9009135958        3.3124209535       17.8247355117
  C        10.0251470601        6.1759078555       17.2213922955
  H         0.7263581709        4.4440998155       28.1048492539
  H         0.4357437765        6.0893277718       27.5392646974
  C         2.1845630415        6.0406082295       28.6858611656
  C         5.0239108841       -0.3575749662       32.5859347046
  H         7.0708074872        3.1164152803       18.5285920233
  H         6.2570791097        3.1804007607       20.0182646198
  C         5.3670537701        1.7047139839       18.8156750385
  H        11.5797535577        2.9121832360       21.3219212754
  H        11.4764872659        2.5538710494       19.4923317094
  C        12.5998979706        1.1628280370       20.8286831769
  C        10.0060840981        7.5792365881       17.0502642000
  C        10.4072902010        5.3937179412       16.0461198690
  H         3.2004377965        5.5274793516       28.6718329072
  H         2.4589018711        6.9714565320       28.2775298405
  C         1.7565425649        6.0712763037       30.1902043998
  H         5.2236456003       -1.3989756712       32.6841972098
  C         4.8871673169        0.1259994709       33.8488728590
  H         4.9256240967        1.2066593977       19.6909461906
  H         5.7676786939        0.9826223636       18.2362588103
  C         4.5597888968        2.4804836775       17.8847582220
  H        12.5027762938        0.8104100357       21.8333142752
  H        12.3524536762        0.3227092684       20.2391586484
  C        14.0348582072        1.5121427683       20.4210730749
  N         9.7816424909        8.4902980412       18.0488426121
  C        10.3256180061        8.2240159353       15.8432870932
  C        10.6344177976        6.0454853749       14.8413602675
  H        10.4456752529        4.3853777539       15.9775477554
  H         1.2227271422        5.1447253382       30.3574590993
  H         2.6316466431        6.1653840330       30.8273172352
  H         1.1735792021        6.9205375502       30.4280595381
  S         4.5790113116        1.7522336767       34.3092882024
  C         4.9264892440       -0.8221354529       35.0213492082
  H         4.3535865999        3.5041108265       18.2400195861
  H         5.1878463728        2.6184252642       16.9939990482
  C         3.2226597686        1.7610922350       17.5735784441
  H        13.9459946382        1.9341642181       19.4033046541
  H        14.5073229472        0.5051821930       20.2730327124
  C        14.6610023526        2.5421142878       21.3948767954
  S         9.8651660198        9.9798859516       17.4850108383
  N        10.3467358700        9.6501828950       15.9509478389
  C        10.6653686826        7.5403892504       14.7110255783
  H        10.8959871461        5.3548672407       14.0148546887
  C         4.4472698456        1.1682718704       35.9364663229
  N         4.5139441509       -0.1574146944       36.1102684073
  O         5.1698463919       -2.0246663034       34.8431670416
  H         2.6633270032        2.1448847863       16.6902895543
  H         2.6924821944        2.0570108205       18.4501089036
  C         3.3508656201        0.1923991374       17.6103749639
  H        15.3298565289        3.1724915673       20.8284276471
  H        13.9782634618        3.1588760764       21.9044109921
  C        15.5076828632        1.6937936481       22.3676564111
  C        11.1063409658        8.3131620439       13.5425565979
  S         3.9792229232        2.2727815086       37.2781874774
  C         4.4137923225       -0.7519772467       37.4503378955
  H         4.3234599609       -0.0529919816       17.0278265409
  H         3.4117113959       -0.2315206565       18.5913376691
  C         2.1001697008       -0.5588060716       17.0571141658
  H        16.2748925578        1.2117506634       21.8052015230
  H        14.9501277360        0.9342776433       22.9054831070
  C        16.3422793538        2.4681269113       23.3406219905
  H        10.7699801860        9.3732274510       13.5138741381
  C        11.6053009507        7.9721918828       12.2933785074
  H         3.4088883199       -0.5409372598       37.9104580307
  H         4.2308107672       -1.7900386373       37.1243158269
  C         5.7020300427       -0.4637828587       38.2677937205
  H         2.2004466798       -0.7958384264       16.0113539356
  H         1.2329483741        0.0807533154       17.2279287590
  C         1.8321967078       -1.9402736641       17.7413778980
  H        16.0309074369        3.5066209226       23.4321685653
  H        16.2296011111        1.9227304485       24.2903610573
  C        17.8278317167        2.4955734787       22.8207818506
  S        12.1821025776        6.3810509060       11.7965576721
  C        11.6732399951        8.9792397084       11.1933973562
  H         5.5080800583       -0.6107523367       39.3134231961
  H         6.5010345264       -1.1900637896       37.8865815310
  H         6.2183316758        0.4681110320       38.0271580832
  H         1.2846323431       -1.8297004825       18.6070671932
  H         2.8462932050       -2.3059966065       17.9616480988
  H         1.5400411090       -2.5752220559       16.8933693715
  H        18.2794281837        1.4915662681       22.7041857287
  H        18.5354180402        2.8307080002       23.5049474257
  H        17.9058835279        3.1073115191       21.9241905467
  C        12.5297110272        7.1225567571       10.2218846838
  N        12.2545663632        8.4367281401       10.0589599345
  O        11.2590398517       10.1166385727       11.3790590158
  S        13.3692381911        6.3478218407        8.8744677890
  C        12.2729918737        9.2020225297        8.8330779074
  H        12.2095785483       10.2424851911        9.0504557412
  H        13.1425889251        9.0676502528        8.1972099188
  C        11.0305294123        8.8166183192        8.0229850990
  H        11.3858580169        8.0067280271        7.3979662603
  H        10.1581449754        8.4976370295        8.6841578112
  H        10.8139341137        9.6191207464        7.3528631637
  H        -1.6767519731       12.8414216546       16.9181154266
  C        -1.8102345945       13.8299313464       16.4959996315
  H        -0.8133226508       14.1360768896       16.0253840526
  C        -2.2312708334       14.8427657970       17.6171977714
  C        -2.9520207168       13.7436527259       15.3769609723
  C        -2.9921133390       14.1458379186       18.7506012486
  H        -1.3247299158       15.2831233191       17.9809702203
  H        -2.8796020695       15.5524946484       17.1250939432
  H        -3.0418012052       14.5788590727       14.6934890829
  H        -2.6522286532       13.0268662404       14.5486381376
  H        -3.8876027842       13.3294438828       15.8490191468
  C        -2.0891947377       13.4690456211       19.7154005984
  H        -3.5864867747       13.3345747043       18.3363527798
  H        -3.5973639253       14.9287288033       19.1790703280
  C        -2.3651561483       13.8461678236       21.2386426545
  H        -2.2174950968       12.3587683222       19.6063868342
  H        -1.0572083122       13.5127222191       19.4618592132
  C        -1.4485457134       13.1589018444       22.3212175903
  H        -3.3585727392       13.5856116305       21.3858062945
  H        -2.3879303859       14.9472513969       21.4730162742
  C        -0.1279293379       13.9377154113       22.3414219556
  H        -1.9153157067       13.1094738051       23.3197026047
  H        -1.2379243382       12.0835344717       22.0574252079
  C         0.9860154331       13.2157667303       23.1912613676
  H         0.2488788366       14.0529562632       21.2852232144
  H        -0.3663019966       14.8633488918       22.7115526990
  C         1.5238015062       11.9109967245       22.5563641748
  C         0.5285465952       12.4826242652       24.3843732848
  C         2.1455082165       14.1287641477       23.3772947835
  C         1.1064482581       10.8183547024       23.2844379306
  C         2.0626308432       11.5972417567       21.3004754831
  C         0.4939483946       11.1811024227       24.4431732331
  C         0.1064684575       13.0553987166       25.5624143716
  H         2.4326650046       14.2809647222       22.3718307248
  H         1.9026234772       15.0088058522       23.9143415440
  C         3.2838581750       13.4553959384       24.1340929184
  S         1.5506393274        9.4064675493       22.5184630148
  C         2.1045882332       10.2535424412       21.0873422537
  H         2.1135495197       12.4019146912       20.5761628730
  C         0.0490955659       10.5523393162       25.5792182099
  H         0.1567332736       14.0759992855       25.5629249697
  C        -0.2927860163       12.4490326333       26.7328721160
  H         3.5608608589       12.6277346254       23.5625960453
  H         2.9686779875       13.0079827861       25.0319909049
  C         4.5106783050       14.3434479617       24.5023260014
  C         2.6019541220        9.5345944230       19.8413277715
  C        -0.2967436235       11.1424129526       26.8008352889
  H         0.0391034736        9.4694539885       25.5213376953
  C        -0.7019356024       12.7919713028       27.9912494085
  H         5.2674312344       13.7437275542       25.0630113992
  H         4.2712079465       15.1754173366       25.1595887970
  C         5.2691295854       14.7176702398       23.2201424015
  C         2.4544447895        8.1860816951       19.5447656326
  C         2.9988902841       10.4307256563       18.6966293636
  C        -0.6963920336       10.3124891903       27.9490882133
  C        -0.9160934773       11.6533923712       28.7470135008
  S        -0.9783647627       14.2808733889       28.8290755999
  H         6.0390865660       15.4545725949       23.3882729430
  H         4.6562981087       15.2170693357       22.5896822605
  C         5.9256861676       13.5267324525       22.3913582741
  N         2.0577040013        7.2207260779       20.5478329686
  C         2.7657518623        7.6277426225       18.3447513923
  C         3.2014154173        9.9276716795       17.4102339565
  H         3.2100994907       11.4948183331       18.8102392919
  C         0.3202129811        9.5085055410       28.6386350614
  C        -2.0792200576        9.6150364631       27.6436902552
  C        -1.3842033296       12.0634701246       29.9692349865
  C        -1.3438181861       13.4052990975       30.2416983441
  H         6.8666652359       13.2011927960       22.8793621153
  H         5.3578855512       12.6047490887       22.4142312054
  C         6.1556076596       13.9429230715       20.9123691335
  S         2.2200426903        5.7023174545       19.9257062659
  N         2.7288344031        6.2099455257       18.4141895743
  C         3.1017358194        8.4073823662       17.2054549122
  H         3.6458908965       10.5976473560       16.7113982856
  H         0.3669091392        8.6101916994       28.0472933805
  H        -0.0749348887        9.1876598639       29.6008584630
  C         1.7072369023       10.1926529197       28.6998509472
  H        -2.0237863276        8.8736234237       26.8689107562
  H        -2.3964315586        9.0727533715       28.5810040819
  C        -3.2357399152       10.5791921385       27.4328916098
  H        -1.5988282176       11.2260594722       30.6288475962
  C        -1.4866126329       14.0548728167       31.5495101909
  H         7.2463476618       14.1784569514       20.6998850742
  H         5.6166134411       14.8596805360       20.8073794073
  C         5.5097601496       12.8682660666       19.9987792255
  C         3.3310237773        7.7068177751       15.9693951308
  H         2.3243175486        9.5271009038       28.1245587190
  H         1.9320123674       11.1156798756       28.1214073154
  C         2.1566388770       10.3215073931       30.1716528230
  H        -3.2346040070       11.2053463648       26.4968936469
  H        -3.5706677854       11.1313505453       28.3083945638
  C        -4.4860096357        9.6796445172       27.1453131250
  C        -1.5991513477       15.4520572016       31.8168170150
  C        -1.7054814151       13.1802014374       32.6987351189
  H         5.9014091415       11.8974537519       20.1581745409
  H         4.4643151035       12.8451556494       20.1525504946
  C         5.9182895101       13.1989537513       18.5214193660
  H         3.2754579636        6.5979941971       16.0297010219
  C         3.7333561731        8.1210972832       14.7374644061
  H         1.9956155356        9.3279744132       30.6408860550
  H         1.5957568085       11.1310206221       30.7487940726
  C         3.6482307592       10.7223375384       30.2657967129
  H        -4.3978835664        8.8723751316       26.4220959730
  H        -4.8393699633        9.1541158953       28.0925340571
  C        -5.6937664586       10.5383721718       26.7787237069
  N        -1.4293245564       16.4661962853       30.8817249451
  C        -1.9966118428       15.9811082149       33.0451542476
  C        -2.0429731420       13.7183667941       33.9556889658
  H        -1.5263132502       12.1092929930       32.5174465747
  H         6.0219858730       14.2919558809       18.4416573826
  H         6.9155300599       12.7208850858       18.2935146457
  H         5.1468817154       12.8136596323       17.8217603101
  S         4.0121767972        9.7251814481       14.3165071044
  C         3.9491993268        7.1070143846       13.6918498428
  H         4.0667866595       10.3890556572       29.3616489060
  H         3.6298468207       11.7999313649       30.3971546244
  C         4.4055904814       10.1096171463       31.4919382543
  H        -5.3874669068       11.1578907124       25.9008726975
  H        -5.9377053332       11.2867082595       27.5559057514
  C        -6.8878075549        9.7537268428       26.2604124494
  S        -1.6859750272       17.9937120511       31.4803641715
  N        -2.1913060969       17.3843209451       32.9664380105
  C        -2.3139047588       15.1802641844       34.1567792961
  H        -2.1525854879       13.0338747150       34.8083462393
  C         4.2196512814        9.1783015279       12.7298023041
  N         4.2280953293        7.8123780060       12.6004020306
  O         4.0851962473        5.9546511309       13.9053917448
  H         3.7199286325       10.2283042506       32.2535913276
  H         5.1622487797       10.8588856149       31.5863015527
  C         4.8257959991        8.6360337671       31.3372997547
  H        -6.5436872038        8.7971459502       25.8475404944
  H        -7.4592662748        9.3995093872       27.1193279356
  C        -7.7205058469       10.5384766532       25.2916030096
  C        -2.7253591736       15.8504885602       35.3751737467
  S         4.6815642196       10.1812658228       11.3596281597
  C         4.4751506448        7.1408170897       11.2766707238
  H         4.2032673335        7.9658086919       31.9296915825
  H         4.6136684864        8.3302868656       30.2683499811
  C         6.2910216533        8.2186021756       31.7153532062
  H        -7.1724735479       11.0451923537       24.4894600737
  H        -8.2284650003       11.3729891463       25.8313004244
  C        -8.7389040461        9.7486338200       24.6129926811
  H        -2.4384443067       16.8604223106       35.5619852824
  C        -3.2656173999       15.4672102578       36.5426671125
  H         4.9836412376        7.7117168976       10.4785905325
  H         5.0269396472        6.2172897585       11.4098182861
  C         3.0709509622        6.8409962934       10.6693819709
  H         6.6630315878        8.6862394758       32.6658091035
  H         6.9354250563        8.3037297552       30.9295037148
  C         6.3924893797        6.7432463501       32.0994367005
  H        -8.9039277888       10.1044606556       23.6205316461
  H        -8.3608042253        8.7478848173       24.3475829391
  C       -10.0640551568        9.5970402890       25.4129703654
  S        -3.7695949573       13.9027088495       36.8996719479
  C        -3.3691540174       16.4181184616       37.6926496345
  H         2.2165560447        6.5193455033       11.3085587027
  H         2.6780235332        7.7056134462       10.2473773823
  H         3.1751681350        6.1747194418        9.8286465834
  H         5.6007240470        6.3991200402       32.7324495525
  H         7.3218312233        6.6057534689       32.5697776787
  H         6.3217646273        6.0009025736       31.2991543866
  H       -10.8281997173        9.0600012998       24.8918611672
  H       -10.4158909004       10.5489541431       25.8532278401
  H        -9.8688017545        9.0067987202       26.2688778038
  C        -4.1150295283       14.4894727805       38.5622425303
  N        -4.0242389978       15.8420286185       38.6497751742
  O        -3.0574271829       17.6121241715       37.6514383209
  S        -4.8629726524       13.4911715624       39.8564958429
  C        -4.0920385926       16.4715458070       39.9711492650
  H        -4.2568066795       17.4915607313       39.7776453747
  H        -4.9578888119       16.0894217054       40.4313324313
  C        -2.7582844895       16.3402595962       40.7180785664
  H        -2.6750340703       17.2335118820       41.3560439882
  H        -3.0410774003       15.6063687323       41.4580720407
  H        -1.8522951718       16.1069016544       40.1196082741
