352
 i =     6500, time =     6500.000, E =        27.6132263470
  H        12.6025940567        6.6594469713       32.1016321482
  C        11.7297395774        6.0393467538       32.2928106269
  H        12.2697110504        5.0520912715       32.2924843023
  C        10.5924795836        6.2098198981       31.2592616538
  C        11.2169457749        6.4204595443       33.6618594802
  C        11.2317384770        6.2883986870       29.9049857972
  H         9.8004356887        5.4679943595       31.4096390576
  H        10.1092595927        7.1330907342       31.3994322578
  H        11.6434794351        7.3033836643       34.0602688803
  H        10.1294859993        6.4734444132       33.7048338607
  H        11.4340048372        5.5701749644       34.2946404709
  C        10.1459393757        6.4729982985       28.8495437497
  H        11.6340176635        5.2998207478       29.7672480979
  H        12.0220337549        7.0127264574       29.8024999157
  C        10.6176210341        6.1949143036       27.3531068918
  H         9.4131974794        5.7646546541       29.0847210728
  H         9.7375365745        7.4898208062       28.9055211794
  C         9.6475481360        5.3104379601       26.5490831000
  H        11.5994064219        5.5770984389       27.3593639212
  H        10.8931747821        7.1636587812       26.9118752532
  C         8.3920163972        5.9922722742       26.1500478002
  H        10.1258588902        4.9621945902       25.6439934418
  H         9.4486340868        4.4092744488       27.1596469278
  C         7.3391588605        5.2605589246       25.4124674160
  H         8.0018979438        6.3982571218       27.0521694281
  H         8.6886852166        6.8750864420       25.5634732359
  C         7.1028569949        3.9383719480       26.1009901457
  C         7.8604195206        4.5753872668       24.1763050252
  C         6.0725889960        6.1038889382       25.2426236503
  C         7.3460036210        2.8069464174       25.3249934241
  C         6.6789168238        3.5119245800       27.4020052709
  C         7.8843965433        3.1891044089       24.1152317988
  C         8.3029833587        5.2692024110       23.0738690855
  H         6.3516510682        6.9928118413       24.7455976456
  H         5.7813143050        6.5457773828       26.2433182942
  C         4.8582446572        5.4550909025       24.6618095811
  S         7.0368084805        1.3339009022       26.1002326168
  C         6.5583105935        2.2173644878       27.5106286187
  H         6.6403694818        4.2482993976       28.2318773793
  C         8.3405274956        2.6016612539       22.9314352462
  H         8.2498534937        6.3327103860       23.0643358328
  C         8.7649148345        4.6790434090       21.9551800860
  H         5.1866600039        5.0896571448       23.7063227692
  H         4.5292165065        4.5368374806       25.1660950852
  C         3.6665510124        6.3410528728       24.5790237913
  C         6.0710153145        1.5642237206       28.8477813413
  C         8.6618891742        3.3742174352       21.8565961750
  H         8.2935177514        1.5567842128       22.8380897996
  C         9.2297340095        5.0472985225       20.7529066528
  H         2.9637140306        6.1323518242       23.9047930619
  H         3.9898715000        7.3210257123       24.1965197199
  C         3.0005618647        6.4308162875       25.9772136537
  C         5.9702666359        0.1960904708       29.1413494483
  C         5.8047425841        2.5360365239       29.9794939481
  C         9.0108372293        2.6709999154       20.5674973677
  C         9.3911717521        3.9786816253       19.8663128167
  S         9.5030067483        6.5540826216       19.9340521707
  H         2.7727550309        7.5082662968       26.1188010567
  H         3.6676946837        6.1011735632       26.7998773523
  C         1.8114996632        5.5302828051       26.1943403149
  N         6.3439020935       -0.8135030893       28.2440585473
  C         5.4735716208       -0.2438898413       30.3645381134
  C         5.4320761999        2.0165493949       31.2372519314
  H         5.8594559944        3.5764091188       29.8618875710
  C         7.8482170164        2.0069311963       19.9102371536
  C        10.2485153870        1.7657093263       20.6614165862
  C         9.7657819656        4.4482468811       18.5775038333
  C         9.9398189729        5.7704715233       18.5048300767
  H         1.1176068742        5.4609961331       25.2619154981
  H         2.2439092073        4.5241597558       26.3912753540
  C         0.9778236248        5.9291154736       27.4192838068
  S         6.0881225487       -2.2447677172       29.0410186650
  N         5.5363900484       -1.6555889376       30.4169792173
  C         5.2716711627        0.5681705808       31.4928273290
  H         5.1444409400        2.7491460141       32.0402309596
  H         7.3396154756        1.2732321823       20.5018437370
  H         8.2698494306        1.4560830860       19.0426482367
  C         6.7282047821        2.8499816725       19.3959107750
  H        10.4070160726        1.1674208250       19.7489113065
  H        10.0707494242        1.0160504195       21.4522498190
  C        11.5260875393        2.4706798620       21.0207852402
  H        10.0285782745        3.7283155462       17.8021285165
  C        10.3030405123        6.5184768299       17.1844736236
  H         0.0928499589        5.2419588000       27.4660603130
  H         0.6818276033        6.9464000168       27.2778412272
  C         1.7814146611        5.7759551303       28.6485174443
  C         5.0971092302       -0.0236058986       32.7927027481
  H         7.1564821142        3.6753060011       18.8673268078
  H         6.1185561595        3.1112740478       20.2502876946
  C         5.9187288618        1.9626428689       18.4071011814
  H        11.3455973060        2.9005533542       21.9759735661
  H        11.6604723761        3.2548869758       20.2287101987
  C        12.8362987195        1.6894443905       20.9263088941
  C        10.2889268343        7.8700992898       16.9069308659
  C        10.5045619031        5.7295901794       15.9428618838
  H         2.5135638671        4.8923165060       28.7789971492
  H         2.4184364787        6.7532739880       28.6268319581
  C         0.9403903555        5.8704022034       29.9077041932
  H         5.2500179044       -1.0646433086       32.7985250537
  C         4.8521470866        0.4932347106       34.0515436492
  H         5.6973738698        0.9856110147       18.8961146602
  H         6.4870497988        1.7113198073       17.5254540402
  C         4.5259468845        2.4865579411       18.0640900214
  H        12.6497532608        0.9718312838       21.6785705242
  H        12.7933768887        1.1404682865       20.0546455739
  C        14.0631410016        2.4742161714       21.3527293816
  N         9.8909535954        8.7868063259       17.9161296752
  C        10.5917403443        8.4902804726       15.7497619418
  C        10.8240626998        6.3497646077       14.6972366221
  H        10.3841578374        4.6789957410       16.0473507588
  H         0.5632531289        4.9196109582       30.2373353328
  H         1.5558692177        6.1401425860       30.7679393108
  H         0.1896519002        6.5935753107       29.7632186801
  S         4.8067426480        2.1210527505       34.5834416763
  C         4.5860913377       -0.4607199319       35.1355481171
  H         4.4101871151        3.5464244097       18.5174531774
  H         4.5481696198        2.7161521822       16.9699583836
  C         3.3989291621        1.5073046155       18.4588073751
  H        13.6413052550        3.3594146435       21.8898973354
  H        14.6583661998        2.8156819131       20.4921559327
  C        15.0259461832        1.7022906839       22.1186500809
  S         9.9626992484       10.3072386635       17.2975535945
  N        10.3767846982        9.8644132915       15.7563238954
  C        10.8398648817        7.7973974567       14.5526966191
  H        10.6713151490        5.7120435306       13.7826777662
  C         4.2878246231        1.5377083524       36.1544157164
  N         4.2839441222        0.1716568619       36.2559876499
  O         4.5339324070       -1.6816192717       35.0380763164
  H         2.5090341573        2.1847994003       18.3199428450
  H         3.5801703351        1.2723537914       19.4783195862
  C         3.3839931925        0.2798119585       17.5638995157
  H        14.5392357410        1.0865787798       22.8036353652
  H        15.6033590170        1.0465639340       21.5432870312
  C        15.8967037763        2.6877441211       22.9189327986
  C        11.2518899041        8.4962472880       13.4031585716
  S         4.0559227500        2.4700469377       37.6037820670
  C         4.1509247835       -0.6510693140       37.4771707515
  H         3.1634830209        0.6064579108       16.5444869481
  H         4.3017674982       -0.2172145291       17.5438838532
  C         2.4835846754       -0.9238222805       18.1032818602
  H        15.3037359836        3.3748308422       23.5956696481
  H        16.4785512778        3.2316237099       22.2258486656
  C        16.8970390647        1.8523653073       23.7807122439
  H        11.2567921681        9.5851629361       13.3695509131
  C        11.8670117808        8.0914949984       12.2431573965
  H         3.4439434653       -0.0930412571       38.1794684114
  H         3.7807984200       -1.5692912456       37.1367083152
  C         5.6232283142       -0.6972116796       37.9763221588
  H         1.4693201696       -0.5528333377       18.0548663154
  H         2.7405226856       -1.1514943459       19.1085134287
  C         2.6070138837       -2.1589275142       17.1886012432
  H        17.0190585480        2.4092321361       24.7434335873
  H        16.2655644758        0.9766933900       24.1257488491
  C        18.1340756859        1.5464540462       23.0139424478
  S        12.4169844932        6.5229224662       11.8847976098
  C        11.8215130053        9.0769987899       11.0966855897
  H         5.8373797448        0.1848916405       38.5457713263
  H         5.7560439802       -1.5280993976       38.6878622192
  H         6.3126831523       -0.7951547337       37.1741704784
  H         2.7267765928       -1.8321357476       16.1702891328
  H         1.9637989367       -2.9477077426       17.2512443867
  H         3.5802140219       -2.5949347515       17.3885026262
  H        18.6568698999        0.7615454179       23.5610218342
  H        18.8290878078        2.2315043608       22.7280094046
  H        17.7800268072        1.0899125692       22.1853347338
  C        12.9199974710        7.2328406006       10.2997870338
  N        12.5175914367        8.5251646231       10.0889259985
  O        11.3618142680       10.2287652503       11.1983644604
  S        13.7165851363        6.3377246894        8.9832206617
  C        12.5442880741        9.2427927716        8.8168565992
  H        12.8920724150       10.2313594441        8.9418187714
  H        13.3018171316        8.9711542624        8.0671259115
  C        11.1953184058        9.4006022885        8.1220494861
  H        10.6949679734       10.2111791187        8.6180808488
  H        11.2110089776        9.6317285485        7.0484486029
  H        10.5362269676        8.6091949242        8.2185252032
  H        -3.1371644869       15.0935023805       16.2627765270
  C        -2.9575755115       14.0283967014       16.3796319643
  H        -3.9688052927       13.6584644355       16.5172157530
  C        -1.9338588734       13.6279974152       17.4779293256
  C        -2.5374181989       13.5108637080       15.0473993492
  C        -2.4762289829       14.1591243614       18.8293693007
  H        -1.9663288733       12.5910858918       17.5457260431
  H        -0.9370453718       13.9289978926       17.3870197009
  H        -1.4104995743       13.5420414225       14.9864854215
  H        -2.7763113751       12.5329473011       14.7277480882
  H        -2.9905578323       14.1829042155       14.3012645658
  C        -1.4984420104       13.8775225786       19.9334278847
  H        -3.4118490611       13.6388036246       19.0240193191
  H        -2.6946884722       15.2320660933       18.7962570194
  C        -2.1863374120       13.7521631148       21.3204869289
  H        -0.9347080686       12.9432579999       19.5869361011
  H        -0.8339580238       14.7126266999       19.9727705082
  C        -1.3083281169       12.9591122463       22.2772483380
  H        -3.2393105775       13.3959263624       21.3827029508
  H        -2.3492190674       14.7676176675       21.7315260649
  C         0.0004037840       13.7261279402       22.6780884767
  H        -1.9064713424       12.8240777868       23.1474077072
  H        -1.1533460026       11.9358512131       21.9919170204
  C         1.1890799731       12.9082689629       23.2585340131
  H         0.4113848704       14.2201624937       21.7459388340
  H        -0.2076558188       14.7000733834       23.3010787688
  C         1.4940222437       11.4925670841       22.5871889236
  C         0.8051409280       12.1587910938       24.4935946637
  C         2.4802213963       13.7934274630       23.3423241382
  C         1.2410019629       10.4458663067       23.3884985450
  C         2.0102131150       11.1972844169       21.3445892574
  C         0.7525283541       10.8061890803       24.6562050600
  C         0.3414659808       12.8986255951       25.6191001621
  H         2.7568260059       14.0864899127       22.2950237923
  H         2.2971858826       14.7421801919       23.8322755027
  C         3.6780392346       13.0646921566       24.0136784418
  S         1.6567188224        8.9378005637       22.5570108145
  C         2.0729260072        9.8615136165       21.0890074481
  H         2.2220428150       11.9719769211       20.5920545972
  C         0.2627497704       10.3459635120       25.8397755022
  H         0.2996578991       14.0154706342       25.5585633781
  C        -0.1978992038       12.3768187070       26.7878125766
  H         3.8997027873       12.0351255673       23.5291883901
  H         3.4707285708       12.9668946739       25.0304449290
  C         4.9937502179       13.8545267637       24.0569739056
  C         2.6191848026        9.1715968387       19.8680399597
  C        -0.1675071456       11.0381691320       26.9617932364
  H         0.3263899123        9.3062408867       26.1295178766
  C        -0.6530871958       12.8835823984       27.9647008242
  H         5.6962998712       13.4776904083       24.7621363097
  H         4.6379860723       14.7786212269       24.4962686644
  C         5.7288175451       14.0249876187       22.7143525448
  C         2.5523913964        7.7733373476       19.6690483344
  C         3.0129491006        9.9961715231       18.7331896674
  C        -0.6896498527       10.4614591424       28.1911996809
  C        -0.9662920946       11.8747048566       28.8240310251
  S        -0.8733216349       14.4367174132       28.6638227692
  H         6.5237466060       14.8371468638       22.8913177305
  H         5.1026336655       14.3947632183       21.9582937996
  C         6.4602191143       12.7674088686       22.1725148110
  N         2.0419696606        6.8164755151       20.5711093800
  C         2.8754145126        7.2075100428       18.4200180351
  C         3.4211808498        9.4362536553       17.5222339787
  H         2.9437799930       11.0493928543       18.8225386789
  C         0.5138009726        9.7656393550       28.8533882046
  C        -1.9208732440        9.5356731226       28.1454542931
  C        -1.4498365126       12.3062599973       30.0400099139
  C        -1.3000320002       13.6634040049       30.1477830978
  H         6.9816895394       12.3133676749       22.9565172966
  H         5.7514700988       12.0640815327       21.9051578755
  C         7.3328467500       13.0037820404       20.9337046604
  S         2.0885685313        5.3380847339       19.8428579695
  N         2.6767653347        5.8508280709       18.4485569325
  C         3.3647895781        7.9826023787       17.3233081554
  H         3.6636492888       10.0810311219       16.7001362968
  H         1.0204950461        9.2021685533       28.0731830549
  H         0.2227511034        9.0876100674       29.6239403884
  C         1.6255148030       10.6690928607       29.3984897064
  H        -1.6378723975        8.5701168633       27.6815752113
  H        -2.4007650645        9.2480768617       29.0661791156
  C        -2.9843316288       10.1498969815       27.2742817221
  H        -1.8078850756       11.5082716489       30.7572155514
  C        -1.5600767479       14.4716146053       31.3693371435
  H         7.9013471610       12.1661660962       20.5246301655
  H         8.0710428466       13.8307357362       21.1493427720
  C         6.3284576119       13.3072917520       19.7331840151
  C         3.7127581994        7.3168590484       16.0913184560
  H         2.0359930265       11.4167419862       28.7111417505
  H         1.2302358121       11.3149294067       30.1846683558
  C         2.7788951496        9.8618947810       30.0513035779
  H        -2.5965960805       10.4677931802       26.2708759715
  H        -3.3549969566       10.9982598016       27.8620156518
  C        -4.1157692494        9.3035700369       26.9098363169
  C        -1.5934578092       15.8951660813       31.4883112837
  C        -1.7492357965       13.7919542606       32.6901072498
  H         5.6758482659       12.4003388086       19.5249617355
  H         5.6976226506       14.1320590060       20.1491927968
  C         7.0360587522       13.8046079190       18.4925352394
  H         3.8991239977        6.2973336366       16.1522310735
  C         3.9539155973        7.7838429065       14.8302025049
  H         3.2374586411        9.4958040861       29.1588608199
  H         2.5080639470        8.9446214277       30.5534908300
  C         3.7528398905       10.9233971844       30.7348656902
  H        -3.6814225403        8.5099174805       26.3157573805
  H        -4.5531290071        8.8922129331       27.8070862511
  C        -5.2394313087       10.0492369835       26.0677314681
  N        -1.3961977413       16.7876168591       30.4380901358
  C        -1.8717395581       16.5061824365       32.7014830675
  C        -1.9986665686       14.4248157599       33.9639442374
  H        -1.7061588451       12.7346886211       32.7900094456
  H         8.0132570633       14.1819550093       18.7584405483
  H         7.1156680020       12.9663600833       17.8196734608
  H         6.5147434291       14.5113653754       17.8688089133
  S         4.2717007840        9.4696676283       14.3108167607
  C         4.0804013682        6.8006857004       13.6886878410
  H         3.7396496449       11.8823087695       30.2430934148
  H         3.3354288082       11.1143675929       31.7652756433
  C         5.2064542721       10.3960104537       30.9020507740
  H        -5.5925246572        9.5303867484       25.1447459815
  H        -5.0288385431       11.0297825263       25.6585619500
  C        -6.3998707593       10.1091483111       27.0784824102
  S        -1.4571023610       18.3265417614       31.0007858244
  N        -1.8588567002       17.8935994460       32.5277370173
  C        -2.0536946726       15.9162388524       33.9989383019
  H        -2.2882631745       13.8520266258       34.8569540803
  C         4.5301878157        8.7971980502       12.6651956014
  N         4.5111562487        7.4772829386       12.5770725285
  O         3.9952286997        5.6028713349       13.8837925526
  H         5.6709631686       11.0428542823       31.6097754658
  H         5.7852805172       10.5278028873       29.9654717283
  C         5.1480955671        9.1393382583       31.6114006024
  H        -6.8130083465        9.1431724607       27.2152824354
  H        -6.1318821515       10.4264151129       28.1238365287
  C        -7.5472666154       10.8814298829       26.4911470800
  C        -2.3839737600       16.6897104384       35.1465624012
  S         4.9581208224        9.7367238384       11.1953053315
  C         4.6732488636        6.7016806157       11.3636329495
  H         5.9212828448        9.2735970338       32.3917765107
  H         4.1459072704        8.9072579815       32.0980963454
  C         5.4528012889        7.9419614867       30.6707477382
  H        -7.2699196044       11.8539697676       26.0748743060
  H        -8.1945836718       11.0615671731       27.3604966798
  C        -8.3852438549       10.1043010268       25.4761079552
  H        -2.1475304798       17.7859488069       35.1393361323
  C        -2.8423237258       16.3848385770       36.4402021400
  H         5.4920652933        7.1268847118       10.7370335193
  H         5.0106880103        5.6182540414       11.5086332555
  C         3.3432013160        6.6710130872       10.5348749940
  H         5.8583279946        8.2412369479       29.7758847999
  H         4.4675611897        7.5546795986       30.3894494618
  C         6.4826487310        7.0025095489       31.1995575793
  H        -8.3656879363       10.5734298755       24.5335466664
  H        -8.0078953819        9.1488081423       25.3245922678
  C        -9.7718615554        9.9435802478       26.0179813209
  S        -3.4507452848       14.9030271961       36.9422108718
  C        -2.8291222008       17.4438682392       37.4671675418
  H         3.5245501595        6.5532839502        9.4064155566
  H         2.7762836183        5.8153722334       10.8830385252
  H         2.7720584906        7.6334530053       10.5292010665
  H         6.1459575592        6.3783968833       31.9880076340
  H         7.2699622381        7.6749041441       31.5694177457
  H         6.8704684426        6.3500575945       30.4128544836
  H        -9.6078762338        9.3279726656       26.9669532488
  H       -10.3429589200        9.3954039614       25.2127995859
  H       -10.3403149730       10.8283449192       26.2634524018
  C        -3.7382358677       15.6767954291       38.4525350484
  N        -3.4700020937       16.9910986570       38.5230342898
  O        -2.5924562097       18.6712494756       37.2386688049
  S        -4.2648405760       14.9692770568       40.0504932173
  C        -3.6603838509       17.8710611803       39.6681456569
  H        -3.7856291821       18.9236212558       39.2423801377
  H        -4.5281344813       17.6367631449       40.2841012276
  C        -2.3355357532       17.8525261316       40.4890561560
  H        -1.6867862593       16.9936080112       40.4175116957
  H        -1.8107866112       18.8093405574       40.1851033096
  H        -2.5981914992       17.9976775365       41.5228362577
