352
 i =    47900, time =    47900.000, E =        24.7931483138
  H        11.2203329248        7.3822402158       33.0284331961
  C        11.3692025335        6.5037803641       32.4268109596
  H        12.2557343203        6.5713974277       31.8465053807
  C        10.3057872252        6.5393196246       31.3124503310
  C        11.3407178352        5.2711379642       33.3616768655
  C        10.9661574898        6.0443204393       29.9661898013
  H         9.2834344502        6.0800124377       31.4904767537
  H        10.0846634489        7.5509711470       31.1294452219
  H        12.0661411772        5.3897409506       34.1929661137
  H        10.3401181244        5.2816303563       33.8221985812
  H        11.5258364202        4.4350058308       32.7352174661
  C         9.9427339622        5.8232234430       28.8413984781
  H        11.4874164604        5.1073469551       30.0954468080
  H        11.6986208647        6.8064249426       29.6532490212
  C        10.5163196941        5.6760537543       27.4349033850
  H         9.2419175151        4.9945341790       28.9466735890
  H         9.3238486451        6.7178321611       28.6739912205
  C         9.6651909364        5.0207584062       26.3366043485
  H        11.4167156838        5.1276252215       27.6175228235
  H        10.9014031053        6.6836480516       27.1580341821
  C         8.3760816317        5.8827978859       26.0528072179
  H        10.2000377345        4.9789448995       25.3415999412
  H         9.4131758485        3.9832406297       26.5816964001
  C         7.2852953706        5.2427310836       25.1008094993
  H         7.8768984168        6.3573132419       26.9028740365
  H         8.7134260449        6.8129231935       25.5525059777
  C         6.9308678596        3.8828029864       25.8041378059
  C         7.7389653546        4.4627780132       23.8882389539
  C         6.0732855374        6.2152243478       24.9465295111
  C         7.2485894257        2.7946164922       25.0453405669
  C         6.6488440010        3.5405000881       27.1152890506
  C         7.7494231380        3.1117713597       23.8464579922
  C         8.3389824826        5.0884887982       22.7718343664
  H         6.4239223916        6.9428132415       24.3053610086
  H         5.8298535046        6.9232850220       25.7552682818
  C         4.8978779106        5.5036917388       24.3918974963
  S         6.9990082428        1.3221154665       25.8585835177
  C         6.5519218771        2.2130621459       27.3143048627
  H         6.3149824169        4.3789751144       27.7777156292
  C         8.2508546170        2.4066286379       22.7200708267
  H         8.2406777885        6.1734256453       22.7928040830
  C         8.7678939576        4.3661464582       21.6611177158
  H         5.2083314205        4.9354814143       23.5154540817
  H         4.6718399035        4.7212855289       25.0766203375
  C         3.6841949960        6.1944871470       24.0600686672
  C         5.9656430515        1.6093662984       28.5005868903
  C         8.7221614953        3.0331894431       21.5826850928
  H         8.1854814921        1.3466256981       22.7529778718
  C         9.1189949511        4.6720185115       20.3724752462
  H         3.0938922732        5.6241226609       23.4049160308
  H         3.9735326043        7.0330149552       23.4297414909
  C         2.8110946552        6.5361403379       25.2911958083
  C         5.7636225233        0.2694973804       28.7003017334
  C         5.8017707743        2.3916568206       29.7294378694
  C         8.9644319035        2.2961643157       20.3268976476
  C         9.2070516674        3.5740461942       19.4759975987
  S         9.2040958403        6.1347384708       19.5330185105
  H         2.0475608438        7.2039919819       24.8924744885
  H         3.3786034290        7.0350830389       26.0748988727
  C         2.0616442747        5.3380293109       25.9142406075
  N         5.8453201855       -0.7245306713       27.6663909095
  C         5.4008433899       -0.2847891544       29.9053949677
  C         5.3800504506        1.8358693202       30.9269133465
  H         5.9293969045        3.4449461561       29.5877275049
  C         7.7759722487        1.5285537405       19.7621593380
  C        10.2312717817        1.3733296783       20.3311047500
  C         9.4961001797        3.9602930043       18.1973486367
  C         9.5637151557        5.3292775325       18.0622939394
  H         1.2915509731        4.9389048807       25.2122242069
  H         2.6830923622        4.6342687120       26.4141929321
  C         1.2191902910        5.8209903137       27.1480639330
  S         5.6674814269       -2.1884049974       28.4343665113
  N         5.2694199234       -1.6794867745       29.9177467574
  C         5.1789918519        0.4647626657       31.0655054317
  H         5.1501370669        2.5395242653       31.7337115004
  H         7.5189334939        0.6919675959       20.3481146048
  H         8.0238110803        1.2159403500       18.7414652643
  C         6.5359468920        2.3822805008       19.6667164809
  H        10.4733871987        1.0371634290       19.3819882269
  H        10.0903976546        0.4438079515       20.7593945308
  C        11.4680670956        2.1547097346       20.9203203095
  H         9.6331101648        3.2357365021       17.3754225909
  C        10.0117428403        6.0233990472       16.8421633016
  H         0.3866908577        5.1569685657       27.3271842385
  H         0.7999635269        6.8274007798       27.0070536044
  C         2.0365694995        5.8887417373       28.4831025208
  C         4.9769537783       -0.1212747680       32.3546558269
  H         6.6192194639        3.2289066509       18.9596883928
  H         6.4181765302        2.9096489927       20.5985439146
  C         5.3200025300        1.5336503683       19.2547742524
  H        11.3852773399        2.3989202987       21.9621601308
  H        11.7269507837        3.0904350789       20.3797050349
  C        12.6925798405        1.2386916977       20.7634211762
  C         9.9986810674        7.4005380117       16.6834242568
  C        10.4642064576        5.2105299052       15.6177923379
  H         2.7900460546        5.2080703455       28.5854567716
  H         2.5365781422        6.8593132128       28.5294783929
  C         1.0920418161        5.8642206567       29.7197669452
  H         4.9137883272       -1.1615700229       32.2034552782
  C         4.6691251836        0.3271538688       33.5970283685
  H         4.8555120442        1.2216826150       20.2283470284
  H         5.6165242707        0.5132371966       18.8360734925
  C         4.2317536773        2.2139267431       18.4469661440
  H        12.7140299248        0.6827976427       21.7265907041
  H        12.4462448869        0.5452705188       19.9664802717
  C        14.0402594345        2.0330787930       20.5256298427
  N         9.6870679154        8.3213067466       17.6580617717
  C        10.3683581056        8.0202328115       15.5151847334
  C        10.8253283380        5.8375225327       14.4770824662
  H        10.3123037239        4.1223285060       15.5517719785
  H         0.5901034029        4.9715651645       29.5635856362
  H         1.5537552950        5.8805103138       30.6626446030
  H         0.4011220992        6.7024958792       29.7111860146
  S         4.4919242825        1.9195269886       34.1847441407
  C         4.4610390158       -0.7283773089       34.6085250033
  H         3.9640217495        3.1486671747       18.9891552458
  H         4.6420809564        2.3478197891       17.4515020216
  C         3.0370489616        1.2723881188       18.2378044981
  H        13.9426458736        2.8343951129       19.8267216082
  H        14.5962527142        1.1780291481       20.1612147568
  C        14.5321245513        2.4710322929       21.8592279702
  S         9.8315589143        9.8453865475       17.1037966461
  N        10.0385551556        9.3731683464       15.5314350593
  C        10.7518471809        7.3723481778       14.3391310637
  H        11.0149450893        5.2737071814       13.5607535073
  C         4.1480396759        1.1595311669       35.7993853748
  N         4.2838109782       -0.1882424328       35.8049715464
  O         4.5712008853       -1.9010881256       34.4046187060
  H         2.3156645110        1.9231382900       17.7756374433
  H         2.6662755206        0.9496034320       19.1900478960
  C         3.2891114888        0.0749800416       17.4321180014
  H        14.9935647510        3.4613902740       21.8032492296
  H        13.6586177459        2.5906240074       22.5526731938
  C        15.4312858706        1.4215131062       22.4757750097
  C        10.9614047767        8.1742953335       13.1962180584
  S         3.8573629473        1.9946385999       37.3309561746
  C         4.3382370938       -0.9268677443       37.0555099565
  H         3.7635720535        0.3578854205       16.5778887478
  H         4.0617761584       -0.5495861394       17.8314729929
  C         1.9971627576       -0.7470114256       17.0752033511
  H        16.0105997289        0.7833246013       21.7398193827
  H        14.7464995672        0.6963097530       22.9372514326
  C        16.3668911725        2.1258225307       23.4857754201
  H        10.6831336911        9.2099114624       13.1881468132
  C        11.4790803757        7.8186877749       11.9573658276
  H         3.7141015418       -0.4575626385       37.7659496962
  H         4.1662967621       -1.9606455648       36.7569389269
  C         5.7492728854       -0.8500022210       37.6065228922
  H         1.8513378737       -0.7271530692       15.9856753245
  H         1.0145280321       -0.3191637461       17.4147972322
  C         2.0812925487       -2.2266604982       17.6108107953
  H        15.8094347226        2.9778622509       23.8380940601
  H        16.5087782354        1.5068008920       24.3689101284
  C        17.6955535954        2.4500401284       22.8527625821
  S        11.9369432098        6.3103290328       11.4719911243
  C        11.5459531626        8.9332669145       10.9795326585
  H         6.5221261359       -0.7497099995       36.7927102710
  H         5.9287275237       -0.1012336639       38.3204758466
  H         6.0324999534       -1.7583330135       38.1033031508
  H         2.2064766641       -2.1116220251       18.7233812122
  H         2.8262819554       -2.7994070164       17.1860730721
  H         1.1861681364       -2.7833059285       17.3432588497
  H        18.0862067510        1.6726352196       22.2750938327
  H        18.4635331073        2.6412152706       23.6685580586
  H        17.4842381815        3.3809810553       22.3574162207
  C        12.1247364319        7.0019469316        9.9012116810
  N        11.9080891604        8.3704346264        9.8636617766
  O        11.2534567141       10.1156674768       11.1547690968
  S        12.5401112521        6.1439905355        8.5054740149
  C        11.8272994293        9.2267012037        8.6737805306
  H        12.0355084298       10.3096309007        8.7918029147
  H        12.6362753075        8.9282928801        7.9997422215
  C        10.4491018277        9.0394638694        8.0469216615
  H         9.6623936066        8.8089391231        8.7674691954
  H        10.0222610833        9.9415901905        7.6303230638
  H        10.3698864451        8.1652444662        7.3249705302
  H        -1.9624877538       12.6403189762       16.9263014799
  C        -2.1232232204       13.7095797306       16.7298702991
  H        -1.1610153516       14.0343646922       16.3792888440
  C        -2.6246211958       14.5588694675       17.9468346462
  C        -3.0576963901       13.8386775125       15.5701185726
  C        -3.0414605291       13.7299898414       19.1124193054
  H        -1.8547195835       15.2716022214       18.1453107592
  H        -3.4444412557       15.1710700934       17.6325939620
  H        -2.8323583559       14.7864697708       14.9574418436
  H        -2.9948389154       13.1121665252       14.7764558542
  H        -4.0553425984       13.7003503749       16.0081645369
  C        -1.8338268212       13.4128004345       20.0281164895
  H        -3.5042423586       12.8314278765       18.7422468774
  H        -3.7733203068       14.2668039618       19.7027589720
  C        -2.1913322396       13.5906165590       21.4857466711
  H        -1.3988840288       12.5001118876       19.8403611988
  H        -1.0330812223       14.1503631552       19.8397782779
  C        -1.2224413212       12.9703741684       22.5082932621
  H        -3.1878502497       13.0364507711       21.5365096838
  H        -2.2559396942       14.6383853852       21.6595912581
  C        -0.0051686166       13.8338580923       22.5635199327
  H        -1.7314954877       12.9451878955       23.4250350447
  H        -1.1335841259       11.9704262157       22.2665045129
  C         1.2057037439       13.1492899503       23.3003958267
  H         0.3389555688       14.1048936578       21.6542298691
  H        -0.3182609627       14.7307880191       23.1180852979
  C         1.4920443907       11.7787751190       22.5978228481
  C         0.7493222428       12.3908280308       24.4994803244
  C         2.3717219548       14.0887313760       23.6542768673
  C         1.1264744366       10.6406605114       23.3222871694
  C         1.9600342498       11.4707813511       21.3069387135
  C         0.7294733128       11.0302958328       24.5690664806
  C         0.3139260621       13.0954996254       25.5963552742
  H         2.6262520899       14.5077587336       22.6819790315
  H         1.9981811269       14.9902665133       24.1700887657
  C         3.6987762162       13.4353325351       24.2069873446
  S         1.5133487439        9.1842806398       22.4676096226
  C         2.0990033475       10.1207335228       21.0989738571
  H         2.1629900737       12.3018152268       20.6272768129
  C         0.3835076044       10.4509072550       25.7183467139
  H         0.3410249577       14.1800198880       25.4591513838
  C        -0.0786624477       12.4800112416       26.7370286730
  H         3.8618069567       12.5688743050       23.5326305370
  H         3.5074309661       12.9419324075       25.1424658323
  C         5.0170571168       14.3227995363       24.1858069119
  C         2.5237126727        9.5098321052       19.8374568144
  C        -0.1006532033       11.1192783822       26.8327748819
  H         0.3563329614        9.4181854707       25.7420148662
  C        -0.5757690392       12.8619031211       27.9484820947
  H         5.7951860579       13.8144218892       24.7234802917
  H         4.8568041539       15.3141609482       24.6670463730
  C         5.5104864772       14.5500620392       22.7507575962
  C         2.6141033452        8.0856612231       19.5829121400
  C         3.0281287020       10.3531425069       18.7134828890
  C        -0.5765670294       10.3936324254       28.0816489132
  C        -0.8593555173       11.7318218376       28.7416241387
  S        -0.8937184254       14.3566997678       28.8065428496
  H         6.1016924917       15.4709186176       22.7180225110
  H         4.6699461409       14.6964571982       22.1623975111
  C         6.1220209574       13.2845641081       22.0686855894
  N         2.1630682969        7.0862229645       20.4526141822
  C         2.8359699458        7.5322569883       18.3342890346
  C         3.4191611478        9.8248151727       17.4705653081
  H         3.0705643186       11.4613183397       18.7659227826
  C         0.6094735190        9.7349983623       29.0070817171
  C        -1.7562169640        9.3852890433       27.9977746471
  C        -1.2910575504       12.1450788710       30.0249211504
  C        -1.3069051000       13.4951075606       30.2458904224
  H         6.8243669586       12.9180283461       22.8167257049
  H         5.4203261779       12.5064405758       21.7760381010
  C         7.0358450049       13.7976694397       20.9137509193
  S         2.0168512283        5.6567380183       19.7303614282
  N         2.5324366815        6.1475472642       18.2849199983
  C         3.2611179982        8.3484378007       17.2059393881
  H         3.6098563990       10.3720429286       16.6171507729
  H         0.7636381534        8.6577898831       28.7135003823
  H         0.2563485723        9.6511846551       30.0758046366
  C         1.8893886985       10.5335133837       29.1277907733
  H        -1.6000388040        8.5938824015       27.2941133171
  H        -1.8614326261        8.9873128991       28.9691292567
  C        -3.1265162033       10.0904097471       27.5709058850
  H        -1.4427599537       11.3762205484       30.7756886568
  C        -1.5341076001       14.1637907018       31.5741848143
  H         7.8250526540       14.3023239858       21.2975625239
  H         6.4035174059       14.4908430562       20.3573351413
  C         7.4271712256       12.7182866228       19.9315697641
  C         3.4583511098        7.5794925799       16.0012308085
  H         2.7161523025       10.0573806253       28.5708641468
  H         1.7454617739       11.5375509658       28.8182861294
  C         2.2305036864       10.4977593907       30.6290555740
  H        -3.0395979208       10.4825633620       26.5900772979
  H        -3.3184061283       10.9630143490       28.1901601631
  C        -4.2716489932        9.1608038875       27.8516151551
  C        -1.6335566206       15.5883040890       31.7589028113
  C        -1.8540749953       13.3427578834       32.7789841119
  H         8.4937772133       12.7894892180       19.7994161263
  H         7.1662193074       11.7115478989       20.2431432357
  C         6.7665065871       12.9324952464       18.5482765998
  H         3.2684246069        6.4950942156       16.0850950998
  C         3.7781171395        7.8440287032       14.6723642190
  H         2.0282615559        9.5101571791       30.9295904911
  H         1.5571794371       11.1432525871       31.1103679152
  C         3.7069590140       10.8077848509       30.8776277688
  H        -4.1080855506        8.1777319470       27.3543472881
  H        -4.2841112186        8.9176235910       28.8945065832
  C        -5.5186616035        9.9483891200       27.6556429993
  N        -1.3062086274       16.5676853824       30.7983719814
  C        -1.9957346893       16.2609908993       32.8959794888
  C        -2.1039379290       14.0461732072       33.9603800455
  H        -1.8128111323       12.2507876703       32.7389316167
  H         5.6884533499       12.5942620340       18.6820742418
  H         6.7599156877       14.0231231774       18.3936369258
  H         7.2545396971       12.3843812309       17.7128400182
  S         4.0515471987        9.3803170848       13.9993378871
  C         3.6863505707        6.7129342395       13.6990460821
  H         4.2886377509       10.8838773921       29.9626824664
  H         3.7670425793       11.7956302072       31.3131007787
  C         4.3875847793        9.6866236569       31.6906814028
  H        -5.3755256024       11.0091882909       27.8039007497
  H        -6.1410394134        9.6847545068       28.5136344408
  C        -6.3165301470        9.4742703658       26.4241120303
  S        -1.2401406994       18.0981560139       31.4187236148
  N        -1.8367902125       17.6953722597       32.8773710996
  C        -2.3406435118       15.5063436745       34.0479951209
  H        -2.2226732775       13.4719959545       34.8392320774
  C         4.0916815752        8.5284584827       12.4514465615
  N         4.0294399542        7.1482423973       12.4605388602
  O         3.4728059975        5.4774436499       13.9702737565
  H         3.9319954909        9.6544958587       32.6664734133
  H         5.3940007994       10.0511176563       31.9824169729
  C         4.3452351127        8.3311992551       30.9962630095
  H        -5.6871932652        9.0749514206       25.6318907731
  H        -7.0869762611        8.7369851398       26.6509726274
  C        -7.1312340587       10.6086442994       25.8336657334
  C        -2.6419666826       16.1463122323       35.2833498788
  S         4.3091743088        9.3625339185       10.8935660261
  C         3.9489349792        6.2930179356       11.2416484409
  H         3.3282915573        7.8695159174       31.1777936588
  H         4.3609732634        8.5419666538       29.9532176353
  C         5.4624175497        7.4022384009       31.4837805507
  H        -6.5949568338       11.2204779395       25.0927541183
  H        -7.4431705352       11.2387314118       26.6206411080
  C        -8.3685132967       10.1851233838       25.0701042732
  H        -2.6009500498       17.2339338701       35.2622502726
  C        -3.2022300944       15.7779863598       36.5107923670
  H         4.7983331326        6.6753110101       10.6440665687
  H         4.1484872347        5.2987144144       11.5699441235
  C         2.5600228919        6.3345268372       10.5771141596
  H         5.4878479252        7.4906397751       32.5435416095
  H         6.4885716684        7.6055684445       30.9854031756
  C         5.0948384449        5.8937696473       31.1484074808
  H        -8.4617706123       10.5455545626       24.0271137534
  H        -8.4173386310        9.1122620747       24.7738637319
  C        -9.6432048639       10.5208505611       25.7718675154
  S        -3.6824098807       14.2435406889       37.0348791301
  C        -3.2968976994       16.8426271744       37.5540588222
  H         2.0234345165        7.2231755356       10.7512838015
  H         2.6350978334        6.0202403611        9.5032883917
  H         2.0359505361        5.5021646531       10.9911233102
  H         4.8642443172        5.2622266603       31.9998686713
  H         5.9247094794        5.5068781971       30.5275339382
  H         4.1975372568        5.6788281238       30.6139367095
  H       -10.3490072937       10.5339089748       25.0198796188
  H        -9.6896048482       11.4578222542       26.2480246851
  H        -9.7948824741        9.8646807858       26.5887718073
  C        -4.1389479936       14.9591021526       38.5540648470
  N        -3.9237898873       16.2799951482       38.6345970618
  O        -2.9385829027       18.0081625792       37.3813926298
  S        -4.9006360117       14.1291274603       39.9573454523
  C        -4.0115535208       17.1722760813       39.7639795178
  H        -3.9385784955       18.2871025422       39.6054435390
  H        -4.8916528715       16.8876501764       40.2962091610
  C        -2.8683068476       16.8149108079       40.7049025547
  H        -2.8981094573       17.5109495553       41.5510814670
  H        -2.9123331387       15.8770948181       41.2993927409
  H        -1.9270575949       17.0274861251       40.2110707929
