352
 i =    79900, time =    79900.000, E =        24.9511731889
  H        10.4938668066        7.3530346222       31.6987745456
  C        11.5178279679        7.0259628417       31.7119741135
  H        12.0883766280        7.9032045108       31.9905840943
  C        11.9707111571        6.3883595837       30.4018540820
  C        11.6546855593        6.0679512143       32.8332291282
  C        10.8060289977        5.5385254236       29.8937130555
  H        12.3037084124        7.1518563525       29.6499510361
  H        12.8314265665        5.7162830608       30.6956440787
  H        11.9284870331        6.5814060531       33.7799381015
  H        10.7359437459        5.5655592938       33.0970145063
  H        12.3896239142        5.2869389733       32.7122985218
  C         9.8538227078        6.3737220325       28.9374326821
  H        10.1183819443        5.2112032171       30.7021371319
  H        11.2196098117        4.6807200062       29.4175736248
  C        10.3480802651        6.2744417463       27.5037903433
  H         8.8751020731        5.9406244967       28.8599428526
  H         9.7577759469        7.3621263775       29.3657465225
  C         9.5240146414        5.4614827604       26.5021851166
  H        11.3225297108        5.8379664033       27.4409002812
  H        10.4744520585        7.2979506825       27.1815327053
  C         8.3278464860        6.2589409913       25.9827274662
  H        10.1743204727        5.3448296646       25.6718196035
  H         9.4014989664        4.4543830496       26.9486570252
  C         7.3383849538        5.4169279969       25.1220312459
  H         7.8069069332        6.7722273099       26.7847567632
  H         8.6776206671        7.0299893559       25.4485996722
  C         6.9931071105        4.0763503020       25.8098051595
  C         7.9034876754        4.6832146265       23.9592801653
  C         6.0086658622        6.1852669293       24.6408538103
  C         7.3382537729        2.9473280205       25.0528634971
  C         6.4343814243        3.6726193482       27.0295308929
  C         7.8456723900        3.2984604370       23.8521880425
  C         8.4148732661        5.3861416855       22.8748183250
  H         5.4515808982        5.5663857756       23.9656103403
  H         6.2747350240        7.0702043562       24.1796693318
  C         5.0186072641        6.6164940169       25.7314874491
  S         6.8598993319        1.4713907103       25.8287510904
  C         6.2996471465        2.3082072741       27.1739925497
  H         6.1860241363        4.3835932551       27.8457123769
  C         8.3905969206        2.6810358675       22.7814580606
  H         8.5197746374        6.4956032603       22.7604443912
  C         8.7356833459        4.6257501572       21.7318992613
  H         4.9896809224        5.8179717291       26.5237282995
  H         5.4673372353        7.5235453742       26.1894068464
  C         3.6611245529        6.7831289435       25.2797163692
  C         5.9506547840        1.6724218569       28.4928614437
  C         8.7654364131        3.2978893937       21.6507702788
  H         8.2879174951        1.5457681131       22.6988708509
  C         9.1338883774        5.0164344356       20.4918612896
  H         3.4399290418        6.0228952683       24.4917740971
  H         3.4935611837        7.7016331125       24.6497954552
  C         2.7679197648        6.8155369860       26.5353742074
  C         6.1026912958        0.2247245978       28.7928805265
  C         5.5276756384        2.4900123345       29.7046492628
  C         8.9149865032        2.6038331289       20.3527568236
  C         9.3749921886        3.9276222969       19.6458693706
  S         9.4802687288        6.5069179214       19.6941142158
  H         1.8602174725        7.2673209122       26.1490993754
  H         3.1185243154        7.4487404616       27.2733111422
  C         2.3326057533        5.4756816751       27.1531897123
  N         6.3999354531       -0.8081674648       27.8191741629
  C         5.9270526364       -0.3006388209       30.0617766726
  C         5.3196213811        1.9014266962       30.9032101061
  H         5.3862637379        3.5645554443       29.7071291081
  C         7.6484445969        1.9428502613       19.7054493100
  C        10.2425198108        1.8098878724       20.4477327620
  C         9.7013539515        4.3252246761       18.3044800738
  C         9.7362956647        5.6899099128       18.1965000410
  H         2.1324533380        4.7036760816       26.3925209829
  H         3.0999817844        4.9996575783       27.7732754330
  C         1.0020570236        5.6016882224       27.7314614245
  S         6.5381660467       -2.2437774444       28.5988380034
  N         6.0317890820       -1.7392626417       30.0527437589
  C         5.4257418415        0.4434307851       31.1726004133
  H         5.1629040660        2.5534409361       31.7506707315
  H         7.2681315735        1.1211732013       20.3743573995
  H         8.0767034331        1.3859202341       18.9306256161
  C         6.5843234097        2.9705350861       19.2113665221
  H        10.6771276937        1.4817585803       19.5126887408
  H        10.1969542814        0.8338159625       20.9080982946
  C        11.4937676194        2.5919638814       20.9179628122
  H         9.9047187375        3.5411132720       17.5803067216
  C        10.0829125466        6.3874287027       16.9752383839
  H         0.4401193101        5.1362366238       26.9050338446
  H         0.7399967129        6.6470433019       27.8543740042
  C         0.5167805107        4.8063737095       29.0133632548
  C         5.1100702233       -0.2097207382       32.3696334766
  H         6.8778140863        3.4941432545       18.2972671130
  H         6.5739773493        3.7891085137       19.9764918061
  C         5.1281804884        2.4667871989       19.1078518563
  H        11.1988496833        2.9930386734       21.8495014739
  H        11.7147306136        3.4380823761       20.3612162163
  C        12.7437262729        1.7426525585       21.0544633734
  C        10.3197617609        7.8081345197       16.7458958029
  C        10.3116342896        5.5378013878       15.7460037572
  H        -0.4742151158        5.1346296773       29.3726602374
  H         0.4277469613        3.7641882777       28.8315093766
  C         1.4984941489        5.2237804991       30.1057006311
  H         5.3067643850       -1.2771855253       32.2451765440
  C         4.7369668625        0.0962813177       33.5887084348
  H         4.5342473129        3.3860807540       19.1564756267
  H         4.6862889757        1.8072900654       19.8415784720
  C         5.1035222467        1.7899349573       17.7538701858
  H        12.6042372457        0.9429955627       21.7507607647
  H        13.0033361309        1.3014275170       20.1324358436
  C        14.0276514601        2.5008542680       21.5375270535
  N        10.2107725710        8.8244357287       17.7475200128
  C        10.6224501836        8.3518703877       15.5033109636
  C        10.6885667860        6.1139545772       14.5209818301
  H        10.0758978956        4.5077436125       15.7271870722
  H         1.6564736090        6.3023770474       30.1535003550
  H         1.0984532675        4.7973136367       31.0411115438
  H         2.4572250912        4.7808602126       30.1269693402
  S         4.2776500754        1.6375012292       34.0800890576
  C         4.7415022402       -0.9326131706       34.6513111221
  H         5.3686783428        2.3586628542       16.9268490963
  H         5.8949671389        1.0149651502       17.9011383670
  C         3.8256218231        1.1336579361       17.3800040447
  H        13.8632628121        3.6108746671       21.7746640174
  H        14.7189800431        2.3740913239       20.7013661226
  C        14.7321264186        1.8610547082       22.7446503618
  S        10.4900124647       10.2941566731       17.0795756575
  N        10.9113140194        9.7426888157       15.5606436610
  C        10.8805521275        7.5733728119       14.3602109088
  H        10.7392636609        5.4407538762       13.6330503357
  C         4.1489074163        0.9265993988       35.7070280513
  N         4.3435544204       -0.3688578954       35.7500759634
  O         5.1049995171       -2.1137896598       34.4831923544
  H         3.5541975918        1.1397782454       16.2195719314
  H         3.1433626525        1.8733903058       17.8890483025
  C         3.6475184131       -0.2276079791       17.9353021588
  H        14.1393619603        1.5864530929       23.5459071282
  H        15.2465444017        0.9835009713       22.3227947657
  C        15.7566303886        2.8057130552       23.3603875028
  C        11.1961776131        8.2692851716       13.1808205197
  S         3.5847484189        1.7240549260       37.1197153076
  C         4.2318081865       -1.1947168556       36.9642116788
  H         4.4328821246       -0.8926237373       17.5421923708
  H         3.9211175101       -0.1299990750       18.9741217590
  C         2.2378464243       -0.8703751154       18.0074832383
  H        15.2971622273        3.2099026605       24.3023132186
  H        15.9222749249        3.6653193744       22.6540246721
  C        17.1228575649        2.2086873333       23.4779615873
  H        11.0090589695        9.3052848970       13.2291397470
  C        11.6447161858        7.7704491594       11.9694208057
  H         3.4157013155       -0.8535369048       37.5595765426
  H         3.8516051701       -2.2397986045       36.7241587393
  C         5.5850756808       -1.3101129866       37.7156430857
  H         1.5483743154       -0.0385053199       18.1722874020
  H         2.0953427096       -1.4601636278       18.8977877172
  C         1.8068589225       -1.6927890621       16.7853711894
  H        17.7093714281        2.5564573641       24.3496003947
  H        16.9807258777        1.1988916880       23.8195621832
  C        17.9487148518        2.3994604559       22.2179790060
  S        12.0906497706        6.1863517778       11.5863593689
  C        11.8432238555        8.7310900534       10.8811159783
  H         6.4993302104       -1.3228740452       37.0674523555
  H         5.7687429535       -0.4669601620       38.3305070674
  H         5.6791852239       -2.1282184126       38.3913011678
  H         1.7316893284       -1.1744902629       15.7822941411
  H         0.8515314193       -2.1334768305       16.9698264726
  H         2.3731325304       -2.6328134205       16.5521060068
  H        17.8511797006        3.4253485602       21.7258084785
  H        17.6693901368        1.5881301508       21.5116689208
  H        18.9703497795        2.0946940703       22.5285820665
  C        12.5845543815        6.7667114319       10.0277510217
  N        12.5046833454        8.1171067689        9.8821972821
  O        11.4945857193        9.8690111025       10.9004444786
  S        13.3506538165        5.7395210302        8.9000215339
  C        12.7828649807        8.8108747972        8.6394561447
  H        12.9632668793        9.8406180311        8.8632334751
  H        13.6422810325        8.3753588056        8.1366621449
  C        11.5847160305        8.9041176103        7.6719893629
  H        10.6535241887        8.8168932226        8.2622026341
  H        11.5891404919        9.8997963470        7.2184238788
  H        11.6252769364        8.0322802408        7.0099428547
  H        -3.4685101570       14.9079112347       16.1535799801
  C        -3.2104871689       13.8726260745       16.1895559016
  H        -4.1062795535       13.2886903862       16.5141780169
  C        -2.0216348784       13.8454472117       17.1589375189
  C        -2.8637905351       13.3391816315       14.7399560929
  C        -2.4471700724       14.1280074223       18.6214900111
  H        -1.4942528721       12.9128463749       17.0391408378
  H        -1.2719758050       14.6355205593       16.9479576497
  H        -2.4018908775       12.3703145895       14.8679407557
  H        -3.7720628264       13.1061590134       14.2053289758
  H        -2.1138012609       13.9478292833       14.2778803744
  C        -1.3003523170       13.7368201680       19.5919237708
  H        -3.4031677770       13.6779633416       18.8592327845
  H        -2.6350362552       15.1962857935       18.7851811250
  C        -1.8855267744       13.7731065136       20.9748811528
  H        -0.8818608806       12.7186752428       19.4211521692
  H        -0.4401773646       14.4414343940       19.4674895585
  C        -1.0339722634       13.2884769535       22.1034408456
  H        -2.7800145104       13.0999687878       20.7424427679
  H        -2.3032879243       14.7326252945       21.2722834509
  C         0.1067332595       14.2057046609       22.4953867361
  H        -1.5189431448       12.8538666704       22.9474111293
  H        -0.5759255746       12.3924813107       21.6014293983
  C         1.3184862630       13.5090899249       23.1475276431
  H         0.4058718802       14.7737318849       21.5820929701
  H        -0.2664684945       15.0268228518       23.1334585333
  C         1.7111597263       12.1822892334       22.3999969217
  C         1.0440102162       12.7363433378       24.3857094420
  C         2.5997698623       14.3514222855       23.2899977197
  C         1.5002054807       11.0581793940       23.2046575741
  C         2.2086616336       11.8519451596       21.1373726061
  C         1.0918054820       11.3806219807       24.4541196503
  C         0.5731733523       13.3491810609       25.5515723828
  H         2.8511510499       14.8272456941       22.3666107566
  H         2.4031461455       15.1799532860       24.0345664531
  C         3.7228583714       13.5661568845       23.8731319830
  S         1.8713285514        9.6157074749       22.3683029027
  C         2.3358719306       10.4978219178       20.9715241685
  H         2.4054557818       12.6481041629       20.4847314697
  C         0.6821225359       10.7275679647       25.5522497867
  H         0.4312703009       14.4241256771       25.6227214844
  C         0.1851976359       12.6969234221       26.6595586420
  H         3.8923493942       12.6453007941       23.3742359372
  H         3.6489541907       13.4332967912       25.0466048617
  C         5.0723821161       14.3742142464       23.8199990650
  C         2.7938376832        9.7713363743       19.7353970239
  C         0.1587782117       11.3617204053       26.7327035468
  H         0.7364417526        9.6457752644       25.4480407018
  C        -0.4151662929       12.9784738353       27.8608379389
  H         5.7988684701       13.8490411249       24.5196607211
  H         4.9167551109       15.3642431768       24.2267622377
  C         5.6131106896       14.5603720338       22.4061852061
  C         2.7322205325        8.3572142855       19.5581760110
  C         3.2778322048       10.5197116033       18.5753591229
  C        -0.3475658612       10.5380006738       27.8519481042
  C        -0.6866363937       11.8510116792       28.5943118673
  S        -0.6643226753       14.4136479174       28.8016843841
  H         6.2042868937       15.4823794538       22.2284457501
  H         4.7879062525       14.7072543391       21.7251702311
  C         6.4511540438       13.3553833804       21.8920401348
  N         2.2098157296        7.4658796676       20.4905117763
  C         3.0587986856        7.7450661481       18.3548208561
  C         3.5511671139        9.9051671097       17.3223856393
  H         3.1938169014       11.6341322635       18.5418113356
  C         0.8123647710        9.7068291171       28.5483187721
  C        -1.6362794866        9.7533634753       27.5917871316
  C        -1.1376985110       12.1478744646       29.9142661335
  C        -1.2558052342       13.4932790600       30.1857057859
  H         7.1557003865       13.2605709078       22.6964921231
  H         6.0228301971       12.3378455759       21.8118912312
  C         7.4208849416       13.6221532852       20.6972967578
  S         2.3282263400        5.9914551285       19.9118841866
  N         2.7889630012        6.3444025159       18.3822164312
  C         3.4599097501        8.4549583456       17.1924564340
  H         3.9525645775       10.4971607567       16.5366766577
  H         1.2555664059        8.9893213235       27.7859095328
  H         0.3268344638        9.0644547000       29.2558796905
  C         1.9347415591       10.5243121787       29.1096022751
  H        -1.4069196808        8.9647213966       26.9344109612
  H        -2.0274459346        9.2848261878       28.5250982691
  C        -2.8735353777       10.5011140048       27.0472853361
  H        -1.3738108611       11.3007458687       30.5146242172
  C        -1.5806992114       14.2086166781       31.4269365908
  H         7.8685687707       12.6082087405       20.5362360291
  H         8.3059809263       14.3179012566       20.8138484001
  C         6.7484830352       14.0859888903       19.4242452943
  C         3.7161751171        7.6851670077       16.0294631451
  H         2.4044212934       11.1755705833       28.4067804291
  H         1.5653026127       11.2617805091       29.8139572065
  C         3.0076905661        9.5941201909       29.8757277779
  H        -2.6035829930       11.0714215949       26.1017512420
  H        -3.2254631145       11.2260665095       27.7371728393
  C        -4.1245039707        9.6421779434       26.8951352199
  C        -1.6477960014       15.6090342352       31.7150263414
  C        -1.8876691084       13.3399019736       32.6203773856
  H         5.8928069663       13.4329657392       19.2688745622
  H         6.3121142215       15.1326080019       19.6309959431
  C         7.6264782211       14.0933479907       18.1751818895
  H         3.6908973512        6.6208032972       16.0580755186
  C         3.9412478988        8.1261160921       14.7361279320
  H         3.1766562681        8.6706699727       29.3957407893
  H         2.5275780013        9.2491131446       30.8014582756
  C         4.3307805495       10.3685625982       29.9801448535
  H        -4.0174643928        8.9111669417       26.0644029679
  H        -4.1805457587        8.9833653092       27.7490038542
  C        -5.3673082878       10.5238351062       26.6619662754
  N        -1.4379237713       16.6226509688       30.7619399375
  C        -2.0241949514       16.1043731229       32.9186860357
  C        -2.2167490373       13.9277641698       33.8777566142
  H        -1.8184110602       12.2526645402       32.5569686178
  H         8.2183567088       13.1307610422       18.1195644514
  H         6.9333805163       14.1797239100       17.3545814522
  H         8.3852891040       14.9510628147       18.2456421752
  S         4.0504288636        9.7286984038       14.1646689652
  C         3.9088336890        7.1327583723       13.6326172221
  H         4.4685976350       10.9360370901       29.0200318360
  H         4.3008204327       11.1100347906       30.8195545260
  C         5.5299555245        9.5597448933       30.3566520606
  H        -5.0513251834       11.3880383451       26.0559384656
  H        -5.7709182365       10.8758871903       27.5891352715
  C        -6.3469719080        9.7512824587       25.8142122349
  S        -1.7283066646       18.0195521947       31.3792125420
  N        -2.0794015280       17.4885299946       32.8962076228
  C        -2.3393454574       15.3448312216       34.0560094988
  H        -2.3104883317       13.3409462181       34.7437291683
  C         4.0757606962        9.0532524169       12.5326360294
  N         4.0725174158        7.7549648539       12.4390017188
  O         3.8021921616        5.9537465376       13.8023751768
  H         5.3158846734        9.2356702141       31.3381877184
  H         6.4271332597       10.1502439066       30.4804201282
  C         5.8231305874        8.2860437838       29.5937224061
  H        -5.9576363856        8.8036475288       25.4681084194
  H        -7.1561293848        9.5482374513       26.5074871770
  C        -7.0732418425       10.7182356268       24.8796785548
  C        -2.7162710757       16.0176047920       35.2666382954
  S         4.4293775479       10.0895688078       11.0482050343
  C         4.0142546253        6.9270623990       11.1761668768
  H         5.1600028999        8.2966330730       28.7310200610
  H         6.8906217538        8.4076877752       29.3189259012
  C         5.5206960424        7.0500694396       30.5107882977
  H        -6.5380850668       10.7688712557       23.9155081398
  H        -7.0109847900       11.7750846985       25.3434259594
  C        -8.5726845567       10.3925160474       24.7554411482
  H        -2.5522526259       17.0280541266       35.3147024071
  C        -3.2608293630       15.5570243734       36.4413072028
  H         4.6055929692        7.5261118950       10.5526745915
  H         4.5201391320        5.9943434869       11.2596516784
  C         2.5679487083        6.8396451407       10.6851537157
  H         5.3662039416        6.2128543551       29.8550770171
  H         4.5318768781        7.1584762455       30.9667918014
  C         6.6649444413        6.7914888105       31.5620844425
  H        -8.9453493710       10.9443230247       23.9113762279
  H        -8.6845471193        9.3600689270       24.5681265909
  C        -9.4029031582       10.6731717580       26.0414090827
  S        -3.8456556731       13.9642708280       36.7563399348
  C        -3.3670352092       16.5013102966       37.5887587489
  H         2.0646073692        7.7723345330       11.0160665708
  H         2.4325563305        6.6359975788        9.6369779424
  H         2.0432068068        6.0457517759       11.1652054039
  H         6.6697438252        7.5479776155       32.3244886348
  H         7.6673048722        6.7843463359       31.1388958145
  H         6.6032060199        5.8674017367       32.0546236433
  H        -9.0543683290       11.4512920662       26.6653330283
  H        -9.4033242404        9.7595037521       26.5641834595
  H       -10.3817418492       11.1573288736       25.8216823585
  C        -4.3948959918       14.6670307557       38.2728959064
  N        -3.9410999312       15.8531507708       38.6053410611
  O        -2.8773598557       17.6547107937       37.6718111550
  S        -5.0918423869       13.5840163220       39.5581616938
  C        -4.0845397731       16.4552866027       39.9136780806
  H        -3.9133117643       17.5351665195       39.9164173536
  H        -5.0236807158       16.2997956390       40.3476712735
  C        -3.0935756251       15.8953149865       40.9369643076
  H        -2.1050654417       16.3991633868       40.8104745387
  H        -3.5034769121       16.1636161630       41.9537897011
  H        -2.9758936337       14.7605093360       40.8471320260
