352
 i =    25600, time =    25600.000, E =        25.0387803357
  H        11.3344177903        7.7319472121       32.3748858662
  C        11.4372392468        6.7354463726       32.0730098686
  H        12.4284759681        6.6839768155       31.6278391602
  C        10.4854407970        6.6215817944       30.9255025913
  C        11.3354749348        5.8078564587       33.2579132752
  C        11.0783044356        5.8235039322       29.7092399944
  H         9.4897347425        6.1372428417       31.2075721271
  H        10.3387182142        7.6509256879       30.5940484062
  H        10.8293892106        6.4056651667       34.0126100552
  H        10.9052740077        4.8322732470       33.0562591341
  H        12.2853956383        5.7390849407       33.7956324517
  C         9.8877313610        5.7015246612       28.8011877629
  H        11.4037499632        4.8727097269       30.0431891736
  H        11.9335338641        6.2618690715       29.1798941728
  C        10.4176769509        5.5950674417       27.3622403840
  H         9.5160526554        4.7812173452       29.0808711865
  H         9.1491037311        6.4548509518       28.9450481826
  C         9.3810246856        5.0721387661       26.3788300468
  H        11.3901238406        5.1053970099       27.2501781374
  H        10.5033284735        6.5651097357       26.9907881288
  C         8.2110030130        6.0551960701       25.9158667480
  H         9.8658742372        4.8131180099       25.4165213976
  H         9.0732992486        4.1316528205       26.7706688767
  C         7.0436981493        5.3450125099       25.2267982038
  H         7.7965381940        6.6440779807       26.7373920164
  H         8.6818783557        6.8047751324       25.1935743647
  C         6.8096973574        4.0020380346       25.9720161495
  C         7.4534710559        4.6599840482       24.0741180630
  C         5.8803732268        6.3050511850       25.0796114647
  C         7.1465904010        2.8887881044       25.2353607675
  C         6.1619705715        3.6336413628       27.1947117854
  C         7.5300192883        3.3111648155       23.9829808601
  C         7.7817107932        5.3517890142       22.8705638779
  H         6.2118060932        7.0825783410       24.4010303695
  H         5.6924410251        6.9234824346       25.9757049191
  C         4.5717665953        5.6525896126       24.7439896597
  S         6.8146801888        1.3927905934       25.9913099377
  C         6.2520698481        2.2556779066       27.4520459217
  H         5.8856761558        4.4546466730       27.8789131129
  C         7.9205808521        2.7455896677       22.8205472116
  H         7.8261566401        6.3961222706       22.9643417740
  C         8.2113109188        4.7484127787       21.7066618330
  H         4.5016669836        5.3858062110       23.6919308647
  H         4.4974689480        4.7340574332       25.2353365191
  C         3.3625016767        6.4739144919       25.1879349673
  C         5.9777402595        1.6016653313       28.7674849795
  C         8.3953241134        3.4298593208       21.7143231496
  H         7.9109794344        1.7039204197       22.8707051936
  C         8.7705378409        5.1546078491       20.5716192822
  H         2.3861870716        6.2962041226       24.6947180286
  H         3.5123408391        7.5134471479       24.8991506417
  C         3.0167171156        6.5149980726       26.7967476764
  C         6.0657732616        0.1637646001       29.0241853921
  C         5.4962755279        2.4073140327       29.9381602555
  C         8.8423663340        2.6960743884       20.5057183913
  C         9.0446016388        4.0559149200       19.7999261416
  S         8.9022667663        6.6466031739       19.8525745805
  H         2.2946093361        7.2419369587       27.1000675502
  H         3.8212285771        6.9695991240       27.4154732336
  C         2.3207339638        5.1770228234       27.1736493058
  N         6.4675314827       -0.8521187770       28.1611594388
  C         5.8431338580       -0.3492309250       30.3132751869
  C         5.3777306088        1.8890802449       31.2380633571
  H         5.2931240970        3.4412894941       29.8260706471
  C         7.6419569091        1.9467926618       19.8443297196
  C        10.1046026082        1.9206954979       20.7841910945
  C         9.5261246590        4.4597958137       18.5288420742
  C         9.4735257774        5.8139384709       18.4318335670
  H         1.5123983655        4.9647766945       26.4672519236
  H         2.9847936065        4.3338728762       27.2062732743
  C         1.7258745644        5.3519154741       28.5881467233
  S         6.4833772524       -2.2650768974       28.9280894270
  N         6.0323241085       -1.7287158276       30.3919779212
  C         5.4866420895        0.4296352263       31.4768135576
  H         5.1091213778        2.6264234854       32.0315937836
  H         7.4130940172        1.0758088560       20.4228635836
  H         7.9755888464        1.5584692364       18.9004439409
  C         6.3591644209        2.6995094616       19.5684759325
  H        10.3074862423        1.2784923734       19.9305931244
  H        10.0077222315        1.3012698733       21.6663683599
  C        11.3785813440        2.7050739247       20.9926968758
  H         9.7292344696        3.7539870123       17.7515818616
  C         9.7387521791        6.5209697504       17.1273124019
  H         1.1438934994        4.4416429570       28.8642962983
  H         0.9578103495        6.1223266591       28.7133764117
  C         2.6680019884        5.3088781413       29.7633770774
  C         5.2994011494       -0.2794132516       32.7137672947
  H         6.5159671594        3.4550910085       18.9037350038
  H         6.0279549487        3.1466406934       20.5155187006
  C         5.1131136379        2.0122451427       18.9029916719
  H        11.1892784742        3.1966700793       21.9458763854
  H        11.5747543754        3.4877698132       20.2551684729
  C        12.6479797217        1.8824749952       20.9658569606
  C         9.7990008938        7.8948527212       16.8800170713
  C        10.0232221168        5.7590338092       15.9361919840
  H         3.2840609669        4.4743455083       29.7555725002
  H         3.3542485893        6.1261835091       29.5505839413
  C         2.0873881856        5.5475917070       31.1371820838
  H         5.4846936486       -1.3082870075       32.6794111373
  C         4.9455262615        0.1985812024       33.9955824316
  H         4.5594821825        1.3898205495       19.5893538474
  H         5.4552117713        1.3816499335       18.1053455853
  C         4.0260700000        2.9463105305       18.4076485419
  H        12.5933238227        1.1903512359       21.8216242593
  H        12.7634078320        1.1993285359       20.0841644026
  C        13.8827686510        2.8222549102       21.0010445426
  N         9.7341719011        8.8428020481       17.8750506200
  C        10.0574817163        8.4714296568       15.6595670107
  C        10.2649007191        6.2972560491       14.6452490510
  H        10.0927787235        4.6991470870       15.9862609577
  H         2.0560164525        6.6205784498       31.3743543180
  H         1.0284620892        5.0546363876       31.2097682610
  H         2.6568069498        5.0272286957       31.9235130431
  S         4.4426112626        1.7893956712       34.4203145771
  C         5.0148033890       -0.8060145785       35.1123608860
  H         4.1446673330        3.8980970234       18.9595676225
  H         4.2313112439        3.1396771775       17.3957299294
  C         2.6640977936        2.3214822439       18.6457985509
  H        13.8059122091        3.5790906203       20.2138347379
  H        14.7984706050        2.3516878608       20.6933040642
  C        14.1544173410        3.4497903809       22.4169344867
  S         9.9184267535       10.3349406015       17.3003633797
  N        10.1590706993        9.8494803389       15.7772014171
  C        10.3788914357        7.7632015018       14.4773149128
  H        10.5385926851        5.5879532692       13.8805100711
  C         4.3612340190        1.1921943304       36.0873715116
  N         4.5403864383       -0.1922186664       36.2070477402
  O         5.3022734259       -2.0157546583       35.0344380169
  H         1.7452287803        3.0060585043       18.6254500606
  H         2.5268560420        1.9499621779       19.6027223472
  C         2.5213010375        1.1674158917       17.7036026041
  H        14.7624623140        4.3440870232       22.1985209546
  H        13.2449930712        3.8641641670       22.8072165820
  C        14.9051597865        2.4168392257       23.3461732675
  C        10.8286037548        8.4394723416       13.2886017821
  S         3.4714645653        2.0208882030       37.4128849387
  C         4.4371407541       -0.9331314223       37.4910672036
  H         2.1911182888        1.5837739607       16.7512846841
  H         3.3474784952        0.5170935614       17.5825948558
  C         1.4296541408        0.2556223337       18.2241324377
  H        14.5544661446        1.3445876582       23.2266602910
  H        14.5367349246        2.8038390502       24.2950831423
  C        16.4771194414        2.4594374234       23.3778351015
  H        10.7887249335        9.4826151082       13.4114993957
  C        11.2682392768        8.0248164237       12.0708077990
  H         3.7193805976       -0.4391665988       38.0827803416
  H         4.0633394962       -1.9457801247       37.2639405540
  C         5.8700867831       -1.1944325834       38.0809698734
  H         0.7092276803       -0.1720963380       17.4946156521
  H         0.8331225060        0.9740742799       18.8660384305
  C         1.9196186635       -0.8147116834       19.1924169259
  H        16.7121105771        3.4982164975       23.6465173205
  H        16.8505131652        1.8865677679       24.2424126544
  C        17.2852834132        2.0491357133       22.1019197423
  S        11.7706904258        6.4177845283       11.6689303235
  C        11.4393559639        9.0211939914       10.9652916817
  H         6.4410434965       -1.4173106896       37.2510496410
  H         6.2887192542       -0.4487947451       38.6749516060
  H         5.7673647956       -2.0968792657       38.6725493087
  H         2.3643663560       -0.3550479525       20.0339464592
  H         2.5215118922       -1.5904987467       18.6936755107
  H         1.0917022547       -1.4394991731       19.6539102548
  H        18.3087448342        1.9295623644       22.4238821482
  H        17.1780771454        2.8467745300       21.4291655702
  H        16.9600548272        1.1643537480       21.5127209089
  C        12.2534589057        7.1127646253       10.1189362649
  N        12.1441509692        8.4436208952        9.9469575002
  O        11.0886314510       10.1476460424       10.9905773121
  S        12.8881284407        6.1557625462        8.7918358411
  C        12.3851146759        9.2693866842        8.7634793330
  H        12.7208790303       10.2584011766        9.1255853776
  H        13.1615952039        8.8282064727        8.1077792392
  C        11.1046593315        9.4274326975        7.9403377373
  H        10.3620206835        8.7242706836        8.3308621318
  H        10.6374898651       10.4155402381        8.0948456849
  H        11.2745621071        9.3348820826        6.8662252746
  H        -2.2805231074       15.2683015089       16.0644845465
  C        -2.8747553040       14.4551869572       16.3699044045
  H        -3.8547908914       14.8730213645       16.6762951388
  C        -2.1465572263       13.8466584221       17.5827367736
  C        -3.2479482640       13.5383940651       15.1085941993
  C        -2.7792146327       14.1725644828       18.9718903037
  H        -2.0239173120       12.8131301629       17.5973271167
  H        -1.0833020753       14.3460755400       17.5239937034
  H        -2.3718882562       12.9993114369       14.8587989842
  H        -3.9502768646       12.7585721789       15.4498638250
  H        -3.6409675246       14.0948763496       14.2409840024
  C        -1.7057501397       14.0260664778       20.0527411069
  H        -3.6247481723       13.4979539080       19.2542693982
  H        -3.2017986280       15.1867780372       18.9480008482
  C        -2.2397272536       13.9199243303       21.4977031976
  H        -1.1057084331       13.1755058452       19.8396458787
  H        -1.0437949298       14.8822577455       19.8547123222
  C        -1.1674007404       13.1574803714       22.3579152610
  H        -3.2637965232       13.4548299732       21.5395947707
  H        -2.3067406428       14.9811492933       21.7383955014
  C         0.1125929533       14.0164166583       22.5514837746
  H        -1.5481425876       12.8383026298       23.3094597677
  H        -0.9907337711       12.1678077149       21.8212171071
  C         1.2867722860       13.3500115596       23.3860804440
  H         0.4650798206       14.3041799113       21.5338375052
  H         0.0233692306       14.9487574216       23.0436574585
  C         1.6419138226       12.0344603289       22.6271508924
  C         0.8544931073       12.5193523076       24.6129213499
  C         2.6073892001       14.1744956857       23.4615340565
  C         1.4431500043       10.8941322274       23.3985270628
  C         2.0687377742       11.7582985014       21.3007567292
  C         0.8814506493       11.1961513290       24.6248494233
  C         0.3249400632       13.2321635207       25.6893217112
  H         2.8558541409       14.3526236930       22.4521056320
  H         2.4534695255       15.0818448041       23.9442331580
  C         3.7996239582       13.4798587553       24.1830111986
  S         1.8652102612        9.5069886831       22.5158695004
  C         2.1593673959       10.4057752111       21.0654030552
  H         2.2606281420       12.6143695837       20.6760060711
  C         0.4267798871       10.5794512818       25.7457956976
  H         0.2766546254       14.3233119489       25.6373000510
  C        -0.0756724647       12.6142767386       26.8732564819
  H         3.9439830311       12.6578131537       23.6004339673
  H         3.5479075398       13.0297527021       25.1679488203
  C         5.0384593018       14.3517366135       24.2938161296
  C         2.4827063013        9.7529009157       19.7652077108
  C        -0.0579799532       11.2235812309       26.9259126763
  H         0.2993092780        9.5312491452       25.6384840545
  C        -0.5480029233       12.9723749221       28.0893149692
  H         5.9240032745       14.0877804766       24.9507199856
  H         4.5372641746       15.2127680691       24.7023039147
  C         5.6247854616       14.6513228120       22.8987343870
  C         2.4493666222        8.3587982609       19.4892942328
  C         2.8800850852       10.6560548829       18.5994464756
  C        -0.5162817825       10.4707366185       28.1208300637
  C        -0.7387136076       11.8428941673       28.8455409636
  S        -0.8662568722       14.3912153422       28.9839431807
  H         6.7165607466       14.8701803526       23.0227082266
  H         5.1335329150       15.4772569727       22.3475625784
  C         5.6836286457       13.4009677820       21.9792178622
  N         2.0538138313        7.3737569002       20.4200063960
  C         2.7094858429        7.8343552897       18.2400823306
  C         3.0606288561       10.0781224402       17.3028971495
  H         2.9866558086       11.7251195292       18.6330533670
  C         0.5726124253        9.5687801223       28.7202848560
  C        -1.8258617833        9.7236315201       27.8926947380
  C        -1.1490007727       12.2077300173       30.1423936313
  C        -1.2253127238       13.5555253266       30.3582119051
  H         6.0770788995       12.6234029018       22.6774231513
  H         4.7629540271       13.2331981954       21.4208428065
  C         6.8688536544       13.5349893542       21.0699664080
  S         2.2290763027        5.9379094297       19.7390041138
  N         2.7535119374        6.4222546063       18.2219530552
  C         3.0000834260        8.6532372994       17.0908160539
  H         3.3608027102       10.7460951743       16.5286472656
  H         0.8711125224        8.8781283819       27.9858815259
  H         0.0437035215        8.9698510418       29.4815514370
  C         1.8037646021       10.2837309389       29.2520659016
  H        -1.7802739471        9.0372596925       27.0677622903
  H        -1.9195209257        9.0280068998       28.6864382926
  C        -3.0603585767       10.6151259721       27.6323943432
  H        -1.5079337107       11.4647262889       30.8518128522
  C        -1.6017984064       14.2210433827       31.6706243577
  H         7.1295820402       12.5538918679       20.7288870589
  H         7.7747835044       13.9314758643       21.6415286784
  C         6.6081418136       14.3757600328       19.7982019843
  C         3.2417214537        7.9966971778       15.8390265238
  H         2.0968269273       11.1909072992       28.5861835357
  H         1.4363485171       10.6863042441       30.2552072761
  C         3.0976002600        9.4387704158       29.4801241303
  H        -2.7949381613       11.4844606091       26.9290565165
  H        -3.2537411286       11.0831259082       28.6102292947
  C        -4.2920244018        9.9057914371       27.0399496165
  C        -1.7308373783       15.6218546726       31.8959408201
  C        -1.9322784313       13.4212534252       32.8232561146
  H         6.1822112264       15.2994107186       20.1262477382
  H         7.5499803590       14.6883771973       19.2343624819
  C         5.6067393169       13.8322733816       18.7007758272
  H         3.1053802444        6.9429154502       15.7677121285
  C         3.5250876479        8.3842623667       14.5536381101
  H         3.3455801670        8.9918590500       28.5218586751
  H         2.8674864043        8.6143490453       30.2220218450
  C         4.4241568153       10.2428969192       29.7214567644
  H        -3.8508463335        9.1473113541       26.4030668969
  H        -4.8669050508        9.4621360210       27.8429324150
  C        -5.3077209628       10.8892820781       26.3504845102
  N        -1.4203593772       16.5324362582       30.9080746799
  C        -1.9517372004       16.2018849477       33.1051706748
  C        -2.1718137090       13.9539963586       34.0792102739
  H        -1.9735089530       12.3265889758       32.8060052864
  H         6.0753339822       13.1679941388       18.0040440268
  H         4.8162762160       13.1725870726       19.1103044187
  H         5.1464642630       14.6936271824       18.2266997741
  S         3.7617408186       10.0497867476       14.0264253358
  C         3.4337687286        7.3510298683       13.4714118355
  H         4.6623668141       10.8095640449       28.8651260267
  H         4.2803653269       10.9329059955       30.5364179874
  C         5.6505362072        9.2957069325       30.0782908600
  H        -4.7832518634       11.4953960357       25.6578820886
  H        -5.5791881331       11.5484819006       27.1913117373
  C        -6.5637909099       10.3411780524       25.8998830972
  S        -1.2964338518       18.0479495299       31.5615735853
  N        -1.7528432547       17.5922718059       33.1079817029
  C        -2.1901542249       15.3992308038       34.3002107594
  H        -2.4385014558       13.3271779265       34.9762877154
  C         3.8077072081        9.3305365980       12.4826568969
  N         3.6640851794        7.9927756077       12.3041008590
  O         3.2578959526        6.1138448443       13.6067023847
  H         6.5747605504        9.9145897798       29.9587631497
  H         5.7115092254        8.6382441972       29.2509464115
  C         5.5912723054        8.4423932165       31.3144100763
  H        -6.3542357572        9.7734433205       25.0004957511
  H        -6.7566543900        9.6114014776       26.6693617003
  C        -7.6205892750       11.3647728702       25.5514198872
  C        -2.5949879938       16.0192869505       35.4694371106
  S         4.2957583315       10.2939731644       11.0957266415
  C         3.6868187219        7.1372612203       11.1250320205
  H         5.8561918080        9.0469104632       32.2289972064
  H         4.6017191732        8.0962118296       31.6004655267
  C         6.5416437679        7.2163723807       31.3900720171
  H        -8.0159230967       11.2677019977       24.5459593927
  H        -7.2445639607       12.3857070437       25.6388669175
  C        -8.8816659432       11.1897634315       26.4288661717
  H        -2.5566231341       17.0821388952       35.3430892270
  C        -3.1023489164       15.5578398570       36.6580968993
  H         4.3545609992        7.6482868775       10.4354741702
  H         4.1385204533        6.1809080043       11.1989487516
  C         2.2430484988        6.9900369660       10.6067418893
  H         6.7436124634        6.8634614457       32.3562947304
  H         7.3947175865        7.7446320147       31.2283260536
  C         6.1611103999        6.0801369773       30.4840586268
  H        -8.4623508751       11.1527932070       27.4032740779
  H        -9.6442312102       11.9747977113       26.4420569681
  C        -9.6067983841        9.8833925964       26.0825621189
  S        -3.6676480444       14.0462418438       37.1016880384
  C        -3.1490767428       16.5329349967       37.7743681829
  H         1.4547084537        7.1717744171       11.3254124163
  H         1.9997651214        7.3473180608        9.6045262531
  H         2.1090275522        5.9184567590       10.4147784789
  H         5.7456715516        5.2530109078       31.0681806543
  H         7.1555712351        5.6910351190       30.1960138849
  H         5.6489920386        6.3385894245       29.5930484361
  H       -10.0264846500        9.4281196315       26.9853471932
  H        -8.8819728414        9.1851235948       25.6933278506
  H       -10.3770924629       10.0467252397       25.3280210465
  C        -3.9696183144       14.6486780605       38.6964526115
  N        -3.7227995820       15.9973337994       38.8845624823
  O        -2.7157246400       17.6652464070       37.7236486183
  S        -4.3133684327       13.6364005396       40.2292159734
  C        -3.9505732419       16.7187100401       40.0698640619
  H        -4.2161645846       17.6707786674       39.7701429466
  H        -4.8008648320       16.2491148660       40.5332554471
  C        -2.6192548602       16.7386342846       40.9168195278
  H        -2.7327942968       17.4596975365       41.6804188002
  H        -2.3353795817       15.7523574375       41.2414005801
  H        -1.9251109528       17.1361618868       40.1717007054
