352
 i =    96600, time =    96600.000, E =        25.0829113847
  H         9.9817728644        5.3500404151       32.3027808031
  C        10.3660621526        6.3630598335       32.3487605460
  H         9.6465079257        7.1016216166       32.7951879736
  C        10.5637677920        6.8361974108       30.8736939743
  C        11.6578763724        6.3416392459       33.1851334391
  C        11.4465909527        5.9952323449       29.9578464342
  H         9.5809985682        6.8909336193       30.3487392641
  H        10.9873934273        7.9362305269       30.9215374616
  H        12.0095787594        7.2822421552       33.7166837360
  H        11.4375256703        5.6360481650       33.9872730961
  H        12.4602909082        6.0363091804       32.5368885290
  C        10.7379457268        5.0480074940       28.9582683451
  H        12.1662964166        5.4290224509       30.6236788572
  H        12.1517798769        6.6610300545       29.4431088644
  C        10.7844335385        5.6859417642       27.5473806953
  H        11.1910021150        4.1417879315       28.9080163413
  H         9.6820569765        4.8563410796       29.1893787340
  C         9.8594444218        4.9682393466       26.4772803437
  H        11.8662695852        5.8637257109       27.3073007797
  H        10.4176239162        6.7160240584       27.4850681307
  C         8.5803365720        5.7967263449       26.1756854253
  H        10.4732945274        4.5563259863       25.6500621670
  H         9.5045379135        4.1120920647       27.0513651081
  C         7.4292301367        5.0312797259       25.4840954971
  H         8.1538776315        6.2770354687       27.0964872842
  H         8.8461677382        6.5805155724       25.4711382050
  C         7.0077801493        3.7039197045       26.1672500252
  C         8.0091458600        4.1161033588       24.2894275085
  C         6.2978039089        5.8899405421       24.9572293157
  C         7.2508644773        2.5371199981       25.4445679818
  C         6.3845653022        3.3729294041       27.3878335474
  C         7.8452936041        2.7903095993       24.1915169897
  C         8.4824437143        4.7323635427       23.1165158480
  H         5.7696004843        5.3760802592       24.1839235359
  H         6.7562437610        6.8106252288       24.4404938129
  C         5.4245474573        6.5118029534       26.0353421570
  S         6.7778420735        1.0989405514       26.1890264613
  C         6.2065696753        2.0402849619       27.5787093578
  H         6.0848841134        4.1313847623       28.1561750059
  C         8.2717080008        2.1826075835       23.0388218794
  H         8.5381868802        5.8401062205       23.1129284635
  C         8.8813296523        4.1167903190       22.0189968451
  H         5.9866087109        6.5282409790       27.0062442199
  H         5.3222879509        7.5083096177       25.7546404536
  C         4.0790692739        5.7730982566       26.1293496177
  C         5.7382319671        1.3806014465       28.8868203882
  C         8.7553136193        2.7801544638       21.8952684534
  H         8.1727184877        1.0832669874       22.9392817173
  C         9.2895546926        4.4750359304       20.7716061768
  H         4.2612451151        4.7135655257       26.2638678641
  H         3.5959894296        5.9205082815       25.1532545492
  C         3.3102763300        6.2599337128       27.3350364406
  C         5.7812886185       -0.0014726250       29.2388797470
  C         5.2810911740        2.1879786210       29.9707984401
  C         9.1032707947        2.0605790662       20.6220392648
  C         9.4046909182        3.3954332253       19.9185649531
  S         9.5513510377        6.0324050188       19.9313110051
  H         2.8674885379        7.2380236631       27.1798937909
  H         4.0077660759        6.3937946609       28.2009793253
  C         2.2800040833        5.3014146104       27.8719356984
  N         6.0882671569       -1.0818074512       28.3446804179
  C         5.6702876241       -0.5336046978       30.5232922473
  C         4.9986093475        1.6688243867       31.2383037188
  H         5.1235493850        3.2239179054       29.7594461197
  C         8.0211853715        1.2509304491       19.9528481273
  C        10.4835221037        1.2875331593       20.7079722869
  C         9.6654120485        3.8230483448       18.6349493347
  C         9.8928585833        5.1910865547       18.4845125287
  H         1.7822616937        4.8213651338       26.9816595872
  H         2.7890868904        4.5125964492       28.3599463963
  C         1.2500493795        5.9649319757       28.7896179136
  S         6.1612031156       -2.4863989972       29.2021393149
  N         5.9471337768       -1.9166491284       30.6514721675
  C         5.2650918282        0.2941855795       31.5900721809
  H         4.4904313019        2.2196689498       32.0016654199
  H         7.8405362796        0.4275079039       20.6088659436
  H         8.4813734748        0.9066844543       19.0477684939
  C         6.7194409805        2.0499156553       19.6259643152
  H        10.8378977707        0.7840258978       19.7790948259
  H        10.3532059886        0.4155124467       21.2581548318
  C        11.6709458260        2.1358084661       21.2897841850
  H         9.6484283792        3.0056535795       17.8881786558
  C        10.3115850026        5.9748664990       17.2635954827
  H         0.3927723942        5.2641976821       28.6574803556
  H         0.8207604700        6.8009551113       28.3239336281
  C         1.6967575306        5.9970985408       30.2711223728
  C         5.0919887956       -0.2673144662       32.8877865319
  H         6.8342203247        3.0554901884       19.1708529233
  H         6.2996020928        2.1851881621       20.5928839174
  C         5.6009770978        1.2601148015       19.0140938672
  H        11.3546098216        2.6275337877       22.2121080484
  H        12.0215357041        2.9911205740       20.6679289623
  C        12.8229433341        1.2954314111       21.8607376937
  C        10.3904546183        7.4302085012       17.1785874125
  C        10.8307566627        5.2576666453       16.0367479421
  H         2.6936011015        5.6895184744       30.2530268478
  H         1.7684578641        6.9795340166       30.7341521717
  C         1.1090392696        5.0075953120       31.1793151744
  H         5.5716416206       -1.2078842667       33.0208694979
  C         4.7448140022        0.1965379805       34.1359509251
  H         5.4041399964        0.5011210669       19.7689976975
  H         6.0064909830        0.7392939501       18.1664203518
  C         4.3336032873        1.9808004184       18.5713094170
  H        13.0046508636        1.6983393304       22.8671732114
  H        12.4775715612        0.2811210537       22.0458546485
  C        14.1721206669        1.3788845919       21.1222439967
  N        10.0481535788        8.3566077892       18.1537419451
  C        10.8074737459        8.0994059718       16.0386609984
  C        11.0893989621        5.9510530448       14.8891236177
  H        10.8609134566        4.1455972204       15.9352974306
  H         0.5296170543        4.4139894366       30.5857388455
  H         1.9196622227        4.4947841385       31.6619234120
  H         0.5256029005        5.5713539965       31.9342044775
  S         4.2921360134        1.7389914678       34.5733859353
  C         5.0155712348       -0.8104680450       35.2672730393
  H         4.1695042948        2.8380578907       19.2283556920
  H         4.6120976733        2.4724236222       17.6892459540
  C         3.1287205318        1.1394400866       18.4850445158
  H        14.2870224065        2.4200937138       20.8711365893
  H        14.1734650174        0.7894704147       20.2199682294
  C        15.2645814352        0.9927087797       22.1188688546
  S        10.0561985768        9.8963926018       17.5578675110
  N        10.6475824438        9.5044419680       16.0789894822
  C        11.2191463693        7.4786711140       14.9086762036
  H        11.2199948785        5.4303174922       13.9587225078
  C         4.3560657142        1.1306683626       36.2762108153
  N         4.5722460433       -0.2154959565       36.4150034874
  O         5.2363586496       -2.0214319830       35.1182691688
  H         2.2274696958        1.6555944748       18.2571836099
  H         2.9480314631        0.6176847905       19.4792002300
  C         3.2094275739       -0.0190454259       17.3826339397
  H        14.7513117991        0.6209399415       22.9743850261
  H        15.8384567281        0.1815044800       21.6499302669
  C        15.9578381896        2.2418322942       22.6578365444
  C        11.3911157547        8.2295222200       13.6900378590
  S         3.8209585943        2.0294586899       37.6711342757
  C         4.6249658378       -0.9279390121       37.7784278979
  H         3.1376590321        0.4923329189       16.4146097594
  H         4.0780040710       -0.6211910649       17.5642148210
  C         2.0938109845       -0.9977659915       17.4718707150
  H        15.2788832251        2.7419917817       23.3265844744
  H        16.2698910146        2.9055077551       21.7767588591
  C        17.2429902089        2.0865329645       23.5212580981
  H        10.9637377170        9.2427140961       13.8042321810
  C        11.8987664701        7.9192362020       12.4040993158
  H         3.9600140652       -0.4943475890       38.5388775614
  H         4.3374219877       -1.9228768390       37.6568723222
  C         5.9851906816       -0.9435271166       38.3827523850
  H         2.1536603646       -1.5322405818       16.5442039726
  H         1.0438461706       -0.5186066112       17.2943651645
  C         2.2152125589       -1.9852159218       18.6877678047
  H        17.1690122146        3.0469489141       24.0006017077
  H        17.0319741724        1.3549821258       24.3217074400
  C        18.5347913363        1.8083770562       22.7576180350
  S        12.5429468606        6.3490716981       11.9383552630
  C        11.8681801043        8.9529274149       11.3523119137
  H         6.0358218392       -1.5525073252       39.2447818893
  H         6.7465062605       -1.2292106074       37.6555395762
  H         6.2362507733        0.1033602961       38.6371648862
  H         2.1773632816       -3.0047988530       18.2810813479
  H         1.3949688173       -1.8956983952       19.4322079456
  H         3.1863597339       -1.8368200619       19.2314318350
  H        19.2256086421        1.2369333283       23.4042537371
  H        18.9587763620        2.7416764337       22.4438651771
  H        18.4163964801        1.2673559569       21.8247794979
  C        12.8277889170        7.1127195975       10.3096003883
  N        12.4799852856        8.4230505485       10.2502534202
  O        11.3167403134       10.0329666295       11.4568759827
  S        13.3692398522        6.2659383270        8.7621737644
  C        12.7093732455        9.2352751325        9.1179555140
  H        12.9196528783       10.2900728446        9.4535993060
  H        13.5752791736        9.2141467409        8.4578665150
  C        11.5079099690        9.1137982915        8.2378327160
  H        11.4768359622        8.0504676808        7.9023520931
  H        10.5910227771        9.3445694251        8.7997585261
  H        11.5542471096        9.6909658517        7.3261815807
  H        -1.9976371172       12.2231340514       17.3356933045
  C        -2.1470121558       13.2974492981       16.9794278516
  H        -1.2174510629       13.7907552753       17.1373014935
  C        -3.1708100547       14.0790038109       17.8723967925
  C        -2.5763625583       13.3201609942       15.4868347748
  C        -3.1415058642       13.7067505743       19.3896622440
  H        -2.8060599552       15.1088562990       17.8307022188
  H        -4.1645068849       13.9669732097       17.5602962646
  H        -3.2168435599       12.4538876051       15.2480486931
  H        -3.1509287069       14.2135805367       15.2537927020
  H        -1.6649662803       13.4206561799       14.9230771370
  C        -1.7131221506       13.6835906640       19.8764288068
  H        -3.4964557552       12.6897142411       19.4082993557
  H        -3.8414670171       14.2967175528       19.9530904938
  C        -1.7359338002       13.4287742742       21.4351410259
  H        -1.1526222627       12.9030198051       19.3688356140
  H        -1.2046563596       14.5954458056       19.6401768517
  C        -0.5765309046       12.7761517772       22.1677771466
  H        -2.6644994591       12.8402374622       21.7690708943
  H        -1.8986929261       14.3855780701       21.9073924600
  C         0.4461029193       13.8346095398       22.6669396693
  H        -0.9259339543       12.1885900625       23.0258846602
  H        -0.0725466025       12.1347536040       21.4913596736
  C         1.6271145149       13.1205481193       23.4234509212
  H         0.7914442134       14.5322036195       21.9039498336
  H        -0.2194179887       14.3651788283       23.3081408934
  C         2.0441029017       11.7195890011       22.9237892642
  C         1.1049245527       12.4026506296       24.6596474766
  C         2.6827722746       14.0509272085       23.8445587266
  C         1.6587460384       10.6133328793       23.6364817866
  C         2.5303454879       11.2649682563       21.6478411509
  C         1.0772342348       11.0522566972       24.7697487357
  C         0.6280342892       13.1034585406       25.7096025142
  H         2.2727399990       14.9712165329       24.3099045790
  H         3.2238239331       13.6499350546       24.6630351448
  C         3.6611894315       14.4635396389       22.7608349434
  S         1.8998995313        9.0751511981       22.8669305861
  C         2.5558329570        9.9305203137       21.5093229634
  H         2.8448768547       12.0387090460       20.9082013392
  C         0.4461308535       10.4548633489       25.8076690515
  H         0.4869284373       14.1600031109       25.6891356496
  C         0.1650019844       12.5485915730       26.8177793756
  H         3.3342011241       15.4114190842       22.4130466043
  H         3.7070917480       13.6823114268       22.1010098146
  C         5.0597970517       14.7115378997       23.4255777548
  C         2.9168163707        9.2044576672       20.2935873632
  C         0.0988443076       11.2075014562       26.9372777943
  H         0.5845315463        9.3881195513       25.9072312540
  C        -0.3326003419       12.9792554038       28.0563515469
  H         5.4523387426       14.1142022004       24.1825215251
  H         5.0840134316       15.7752839821       23.8442746727
  C         6.1916602093       14.6087227697       22.4342291045
  C         2.9296701362        7.7965423088       20.0846164492
  C         3.2699333381        9.9334888730       19.1140325777
  C        -0.3704351623       10.5237679426       28.2337827973
  C        -0.6457307739       11.8833752083       28.8713168606
  S        -0.6206871852       14.5192474713       28.7855231353
  H         7.0812364601       15.0745103572       22.8453057486
  H         5.8314604223       15.2634959969       21.6459550475
  C         6.3625450484       13.0937931172       22.0141033039
  N         2.5311964556        6.8543276990       21.0598561769
  C         3.1479777018        7.2371663582       18.8566024199
  C         3.4454825356        9.3275832775       17.8709001377
  H         3.3728581920       10.9836651941       19.1519923835
  C         0.7777412105        9.7336325352       28.9842069177
  C        -1.6871975817        9.6930693248       28.1075299392
  C        -0.9412737806       12.3214946633       30.1774915553
  C        -1.0341775641       13.6648444262       30.2536441892
  H         7.3575923637       12.7856955902       22.4120243500
  H         5.5480853999       12.5568448253       22.4520491531
  C         6.3923271078       12.8690278471       20.5014977747
  S         2.4396266151        5.3637986465       20.3627602274
  N         2.9018483564        5.8667030167       18.8465718976
  C         3.4346635085        7.9059651407       17.6845740687
  H         3.6280104263        9.9807622910       17.0657129743
  H         0.9048458198        8.8827560428       28.3758370064
  H         0.4345626501        9.4459176938       29.9631188512
  C         2.0859408025       10.5498099450       29.1881265763
  H        -1.6530730023        8.8112847040       27.4414492417
  H        -1.9104426248        9.3810417213       29.1499722944
  C        -2.8697379769       10.5707443717       27.6506826407
  H        -1.0393173389       11.6056573333       30.9136425945
  C        -1.3613773113       14.3713853879       31.5028122477
  H         5.7522763902       13.6573104675       20.0322163204
  H         6.1252268844       11.9061932454       20.2080069674
  C         7.7915892013       13.0250715092       19.9688031413
  C         3.6387219091        7.1231531836       16.4800004826
  H         2.3613677021       11.0281276807       28.2201658982
  H         1.8486623402       11.2481559364       29.9629777089
  C         3.1333789642        9.5903343565       29.6417664844
  H        -2.6811408871       11.0498447445       26.6710176937
  H        -3.0568315025       11.3789744550       28.3567927871
  C        -4.1742742855        9.8542729431       27.4719406070
  C        -1.4867931578       15.7450142888       31.6685542649
  C        -1.8541436538       13.5565766522       32.6436766960
  H         8.2013760318       13.9770198279       20.4289976520
  H         8.3681360525       12.1624744889       20.3083833463
  C         7.8165964538       13.1696358227       18.4221283499
  H         3.4279048269        6.0563111707       16.5856245965
  C         3.9055151742        7.5733057069       15.2060701654
  H         3.2542516294        8.8386383073       28.8739554096
  H         2.6858141319        9.0292763787       30.4652539353
  C         4.3152274863       10.4111405421       30.0608683498
  H        -4.0401854500        9.5691822438       26.4112645707
  H        -4.2964808009        8.9154736350       28.0797632406
  C        -5.3543071903       10.7836374632       27.4436241589
  N        -1.1364342539       16.6683825106       30.6686641457
  C        -1.8809381302       16.3855512870       32.8296041940
  C        -2.1368078982       14.2100234871       33.8808706794
  H        -1.9175180055       12.5004293473       32.5851394154
  H         6.8178097758       12.9922461443       18.0718771417
  H         8.0588959413       14.1950007399       18.1554706923
  H         8.4922869775       12.4977787461       17.9354387958
  S         4.0832051036        9.2138088996       14.7089208163
  C         4.0735655651        6.5378938518       14.1363583988
  H         4.8352491661       10.6250281022       29.1703426062
  H         3.9142440370       11.3213145854       30.5667883843
  C         5.1854404140        9.6246494806       31.0876415211
  H        -5.0650010982       11.4883402679       26.6426072796
  H        -5.4196940809       11.4302541241       28.3655029920
  C        -6.5594461597        9.9270896817       27.0817141506
  S        -1.3927061041       18.2180973683       31.1204557441
  N        -1.7908010337       17.8190159856       32.6845551072
  C        -2.0882827808       15.7256237922       34.0388742679
  H        -2.3510069809       13.5716129557       34.6976700197
  C         4.3669530942        8.4207626354       13.0899394973
  N         4.4180106964        7.0582990637       12.9660311916
  O         3.9505863999        5.3675775913       14.3234608370
  H         4.6251018522        8.7344348661       31.3490143132
  H         5.2798185140       10.2375194834       31.9125542500
  C         6.5037105266        9.1842838830       30.4570919613
  H        -6.2659727079        9.6771315431       26.0879060326
  H        -6.6888331576        9.0427821823       27.7127175537
  C        -7.9333868363       10.6632194521       26.9271775718
  C        -2.3747904674       16.4740623812       35.2007851858
  S         4.9559904748        9.3189417857       11.6800143269
  C         4.3344527293        6.3257649759       11.6769309946
  H         7.0458160489       10.0836031630       30.0121297945
  H         7.2778732936        8.8995864690       31.1935680217
  C         6.3470201481        7.9489516649       29.4959183584
  H        -7.8859908584       11.6721629625       26.5230898211
  H        -8.2882131249       10.8461791561       27.9592546987
  C        -9.0322215312        9.8943796389       26.1544385605
  H        -2.1970152283       17.4873164675       35.1597580081
  C        -3.0076532976       16.1373385226       36.3925625250
  H         5.0481440888        6.7938574140       11.0346975609
  H         4.7051078262        5.2956479623       11.8684906856
  C         2.9592866655        6.2034517132       11.1291263983
  H         7.2397011985        7.9333206747       28.8745293930
  H         5.5186705860        8.0731308127       28.7556048833
  C         6.1893615734        6.6445220830       30.3238480984
  H        -9.4100699699        9.0763027737       26.7918935055
  H        -9.8517689181       10.6422435857       26.0742208469
  C        -8.6119761180        9.4169969735       24.7748559256
  S        -3.6437626611       14.6149743056       36.8382058271
  C        -3.1348293358       17.1193702845       37.4934033768
  H         2.2396802706        6.3913543296       11.8858185440
  H         2.6051056739        7.0069876126       10.4934079773
  H         2.7504676860        5.2616941748       10.6437103527
  H         7.2204665945        6.2792597790       30.6068027554
  H         5.7064255611        5.7363435570       29.8304014418
  H         5.6549470935        6.7757344308       31.2724469999
  H        -8.6733606410        8.3798853905       24.6183382638
  H        -7.5900904287        9.6509266170       24.5509618067
  H        -9.2080513909        9.9110981688       24.0781286185
  C        -4.1145189453       15.2973546156       38.4332286292
  N        -3.7902411177       16.6147109857       38.5753384887
  O        -2.7869040655       18.2755772797       37.3504830392
  S        -4.6121483826       14.4026883894       39.9181080773
  C        -4.0159985950       17.4100243140       39.8276986149
  H        -3.9805139635       18.4568024755       39.6081481200
  H        -5.0233447260       17.1704450327       40.2087297186
  C        -2.9264594015       17.1513918077       40.8215399813
  H        -3.0730851195       16.1552796266       41.3359850047
  H        -1.9881024075       17.1795350416       40.3503102924
  H        -2.8910496386       17.9089653605       41.5644365882
