352
 i =    10100, time =    10100.000, E =        24.0133202239
  H        11.5759258106        6.7218109244       32.6427525101
  C        11.4926713663        5.6150971664       32.5295995616
  H        12.4021867654        5.1745106638       32.0780130476
  C        10.4244217221        5.2177748669       31.6033206941
  C        11.3596951573        5.0256918599       33.9706305956
  C        10.4558486412        6.0680796278       30.2354470857
  H        10.4223534652        4.1394238682       31.4735844591
  H         9.4803026710        5.3144586601       32.2145842190
  H        12.3484716204        4.6472533870       34.3553659064
  H        10.9891285659        5.7959816680       34.6816451373
  H        10.6766990828        4.1628218016       33.9921356033
  C         9.5177411340        5.4703874101       29.0960819430
  H        11.4008076645        5.9865358585       29.7365413989
  H        10.1383161240        7.1451786060       30.3441760559
  C        10.3263987980        5.3495329037       27.7549248977
  H         9.3438117281        4.4267077451       29.3492841487
  H         8.5522722035        6.0027771961       29.0464110688
  C         9.3510929576        5.0466181016       26.5303246565
  H        11.1101981038        4.5722210695       27.8077944707
  H        10.7969994829        6.3229669517       27.5828243321
  C         8.1207323403        5.9210202132       26.2277199635
  H         9.9249455996        5.0925553110       25.6006210722
  H         9.1683412877        3.9789034488       26.7882615886
  C         7.0186986535        5.0152797256       25.6800946559
  H         7.7834451397        6.4792748526       27.1026346638
  H         8.2646787096        6.5676178859       25.3767043685
  C         6.7467382907        3.6709582707       26.3283835223
  C         7.3632996168        4.3391307730       24.3310780029
  C         5.7368161730        5.8466504330       25.5082120366
  C         6.8485282994        2.6120943129       25.4510537186
  C         6.3460732709        3.2562550381       27.5862975086
  C         7.3630295798        2.9930184874       24.2354443917
  C         7.8625822324        5.0460376909       23.1859327716
  H         5.9326444918        6.6925953898       24.7735374582
  H         5.5761890291        6.3814425731       26.4535981167
  C         4.5610457633        5.0612541354       25.0796872729
  S         6.4912034180        1.0406091645       26.2413129777
  C         6.2212522174        1.9189415618       27.7200855475
  H         6.2707541022        4.0140223906       28.3628444617
  C         7.8443568913        2.4114508052       23.0909588753
  H         8.0020033253        6.1277741268       23.1514157610
  C         8.3145088636        4.4425659743       21.9958934980
  H         4.6802895318        4.5555981622       24.0621860421
  H         4.3324270120        4.3046176753       25.8063531043
  C         3.2674604897        5.8022019544       24.8779402219
  C         5.8991266664        1.2605356698       29.0590836022
  C         8.3493909111        3.0977724924       21.9539761176
  H         7.6905295330        1.4396340012       22.9850632546
  C         8.8664752144        4.7861245161       20.7510330602
  H         2.5907339651        5.1642104316       24.3973486776
  H         3.3655832731        6.6959307194       24.1825501977
  C         2.5881244216        6.1609589182       26.2344091751
  C         5.9526819307       -0.1564000026       29.3770359198
  C         5.5215940137        2.1077818726       30.2238365865
  C         8.8472435630        2.3316926524       20.7571280853
  C         9.1017433945        3.6593251753       19.9960206316
  S         9.1827678759        6.2588915677       19.9838638648
  H         1.7751774651        6.8560241739       26.0544057720
  H         3.3433375014        6.6744684481       26.8319370548
  C         2.0862208913        4.9849830733       26.9767491843
  N         6.2593950702       -1.1522600369       28.4625894943
  C         5.6623352709       -0.6934331734       30.6163156249
  C         5.2142880254        1.6040613093       31.4812880903
  H         5.4106907062        3.1626993591       30.1122841851
  C         7.7947040376        1.4346659342       20.1265019119
  C        10.1549449533        1.4924216903       21.0805408947
  C         9.5521513679        4.0039052001       18.7266032419
  C         9.6528532700        5.3737446248       18.6122293997
  H         1.5386787995        4.3747490657       26.3161988474
  H         2.7863998267        4.3113267674       27.4802354779
  C         1.0929724334        5.5013352811       28.0321029207
  S         6.2995492608       -2.5879188903       29.1788686665
  N         5.8164022266       -2.1202438899       30.6255769618
  C         5.3845107172        0.1411912679       31.7462014832
  H         4.8503024135        2.2615164062       32.2198451167
  H         7.5635300870        0.5661502648       20.7352484341
  H         8.2020327999        1.1340880393       19.2043414643
  C         6.4776557799        2.1173685759       19.7343199178
  H        10.4036673248        0.9324151262       20.1539863673
  H         9.9816740093        0.8125959546       21.9103553037
  C        11.4029771954        2.3297655422       21.4022599460
  H         9.8555722150        3.2476963874       18.0321683504
  C        10.1185756645        6.0193888167       17.3290110662
  H         0.2298330927        4.8276768440       28.1053139486
  H         0.7606621851        6.4749594422       27.7143264619
  C         1.6340679903        5.5743626770       29.4622778982
  C         5.0347591260       -0.5363125371       33.0001842487
  H         6.7686844194        2.9247206638       19.0688445739
  H         6.1113935511        2.6464881392       20.5544686311
  C         5.4940963762        1.1783983276       19.0579662664
  H        11.4985260605        2.6058998252       22.4500942322
  H        11.4195589734        3.2809988694       20.9434701356
  C        12.7230737068        1.5033028191       21.0367074878
  C        10.1321825881        7.4497790930       17.1770859089
  C        10.5232559511        5.1883700321       16.1541093931
  H         2.1189815217        4.5887954790       29.5666386280
  H         2.4030268341        6.4020340470       29.5783180882
  C         0.5616450070        5.8785853778       30.4065744420
  H         5.3545769558       -1.5829267696       32.9586535439
  C         4.6671672371       -0.1108893896       34.2134833521
  H         5.3746247176        0.3855790893       19.8315613763
  H         5.8641867041        0.6665658271       18.2149286675
  C         4.1440571816        1.8886426605       18.7916616380
  H        12.7404898177        0.7275497491       21.7977662820
  H        12.6428580889        1.0297188199       20.1160968200
  C        13.9978227527        2.3102806876       21.1025649051
  N         9.8778082111        8.3107103716       18.1934739443
  C        10.5303016375        8.0462596616       16.0163212024
  C        10.7773016839        5.7970017056       14.9524399083
  H        10.5876434429        4.1018702953       16.3589628490
  H        -0.3805941983        6.1710855452       29.8695243371
  H         0.2632131708        5.0200943391       31.0195490808
  H         0.8713558065        6.5306698464       31.2423947399
  S         4.3868691099        1.5170305303       34.7304317616
  C         4.5513257397       -1.1597164168       35.2935310030
  H         4.1706784026        2.6951826723       19.4467532852
  H         4.0834800274        2.3629117790       17.8187348272
  C         2.9140393862        1.0259751994       18.9624018144
  H        13.7655537316        3.2419279425       20.5025713252
  H        14.7913667952        1.7826892386       20.6372164873
  C        14.3593984248        2.6441003763       22.5985424140
  S        10.0015603786        9.8133805668       17.5822228108
  N        10.3923827090        9.4444482689       16.0555452990
  C        10.9186096523        7.2675207650       14.8964617159
  H        11.0278101347        5.3300810179       14.0336357185
  C         4.0322914181        0.8381833141       36.2999008263
  N         4.1234355162       -0.5310841077       36.3927508489
  O         4.8292707204       -2.3310518669       35.1109583448
  H         2.0713658629        1.6281876841       19.2783727522
  H         2.9999369934        0.1969555209       19.7202642476
  C         2.5522715357        0.4876604106       17.5745040123
  H        15.1020911108        3.4773141056       22.4928559371
  H        13.4931508396        2.9100352023       23.1447787150
  C        15.2253741677        1.4374724284       23.1038512813
  C        11.2545144711        7.9676718429       13.7361388142
  S         3.4942520483        1.7750376312       37.7028920242
  C         3.9509147460       -1.2137589681       37.7136434744
  H         1.5161878099        0.2779768534       17.4370942765
  H         2.9220061228        1.1240025644       16.7336918497
  C         3.1959648058       -0.8736869332       17.3910968428
  H        15.5827857911        0.7799551158       22.3043857337
  H        14.5617328298        1.0220369607       23.8871046987
  C        16.4989289502        1.9587594199       23.8185219091
  H        10.9804572940        8.9992685247       13.8054662456
  C        11.6632667850        7.7051723801       12.5019566753
  H         3.1064740452       -0.9020326771       38.2778300824
  H         3.7259453253       -2.2677541919       37.5304361183
  C         5.2612419271       -1.2284852119       38.4877202234
  H         4.2360894107       -0.8415782227       17.6858866040
  H         3.1957922227       -1.0400879743       16.2956600879
  C         2.4941248048       -2.0175077665       18.2046258536
  H        16.3803264313        2.9284970507       24.2631302872
  H        16.8831052308        1.2807291687       24.5758588008
  C        17.6026961268        2.1128403429       22.7271675720
  S        12.2399031406        6.1315184461       12.0250778769
  C        11.6576178944        8.8608406723       11.4971428435
  H         4.9635831796       -1.5018392143       39.5345652386
  H         6.0732293990       -1.9744142993       38.2099264264
  H         5.6887614728       -0.2434629440       38.6116636216
  H         2.7765845521       -2.9348230377       17.7479623051
  H         1.4255535910       -2.0049061637       18.2328205193
  H         2.8499591351       -2.1221921967       19.2141941498
  H        18.3963454230        2.5644300683       23.2939452477
  H        17.5018108688        2.8274857409       21.9186722077
  H        17.9565604708        1.1809665409       22.3022648181
  C        12.4796624269        7.0650039794       10.4758458750
  N        12.1143061099        8.3839271248       10.3689897641
  O        11.3446944544       10.0194752011       11.6739443648
  S        13.3791435121        6.4831028473        9.1387819321
  C        12.2709836584        9.2688519269        9.2474582529
  H        12.3072732324       10.3013423149        9.5133688282
  H        13.3033448274        9.1365191870        8.8952857740
  C        11.2830548212        9.0030084317        8.1058031496
  H        11.5503203376        8.1269418622        7.5431431913
  H        10.2740413110        8.8592383465        8.5823801492
  H        11.0743742931        9.8255928156        7.4729792533
  H        -3.7849093842       14.5376220508       16.2326150448
  C        -3.4616522852       13.4638556560       16.3399103973
  H        -4.2442542711       12.8077898625       16.6531331280
  C        -2.3323484750       13.4171623048       17.3386213758
  C        -2.9906973211       13.0270935294       14.9504686285
  C        -2.9027953508       13.4536877480       18.7984713976
  H        -1.8620881572       12.4511436614       17.2385972213
  H        -1.5935980458       14.2274143535       17.1531515744
  H        -3.8351949455       13.0815818729       14.2880234921
  H        -2.1787601101       13.6491552399       14.6180953614
  H        -2.7934529248       11.9190592685       14.9617575406
  C        -1.8440436257       13.5570091007       19.8826157286
  H        -3.6087076401       12.6660049216       18.9923847935
  H        -3.5218300351       14.3276568630       18.7634546769
  C        -2.3523375288       13.3475877291       21.2978827735
  H        -0.9705244628       13.0014922347       19.6735130460
  H        -1.5792405712       14.5885296580       19.8356548288
  C        -1.3712432343       12.6725988312       22.3209931181
  H        -3.1948145196       12.7567922421       21.3028742947
  H        -2.6982527841       14.3198875622       21.8362112975
  C        -0.1470204723       13.4959906257       22.5473630290
  H        -1.9089481589       12.4901556319       23.2381575111
  H        -1.0746102519       11.7153114891       21.9605421223
  C         0.9418408292       12.7852242517       23.3811356316
  H         0.3403080531       13.7865394500       21.6549620493
  H        -0.3227530925       14.3018129099       23.2260073738
  C         1.3442896580       11.4268240481       22.8092609391
  C         0.4831763634       12.1019756435       24.6373990657
  C         2.1993240826       13.6993761681       23.5509004326
  C         0.9655218613       10.3421877965       23.5934407728
  C         1.9112762783       11.0331925897       21.5844057527
  C         0.4729499097       10.7621144581       24.7687835332
  C         0.0301652902       12.8626778310       25.7597096355
  H         2.4797036313       14.2811402014       22.6947213020
  H         1.7709724600       14.3592744805       24.3048554490
  C         3.3311584794       12.9320895012       24.3047897057
  S         1.4419633036        8.8596047753       22.8793880580
  C         2.0734843133        9.6994286329       21.4745990466
  H         1.8442665498       11.6509671842       20.6267500353
  C        -0.0327806482       10.2113528347       25.9049851253
  H        -0.0238280000       13.9364791506       25.5781901041
  C        -0.3387050478       12.3087687124       26.9575842650
  H         3.7987319479       12.1652298913       23.7233207228
  H         2.9384165003       12.4299413014       25.1174440620
  C         4.4917652715       13.8929607256       24.5750269462
  C         2.5656504856        8.9914114879       20.1947636809
  C        -0.4062535554       10.9859604825       27.0186975983
  H        -0.1393665719        9.1162507956       25.8941307758
  C        -0.7331851052       12.7419868681       28.1483578890
  H         5.0998358535       13.5153126743       25.3963299499
  H         4.1638801970       14.7643493824       24.9811442123
  C         5.5072780811       14.1172560046       23.4626360827
  C         2.5196493148        7.6650212197       19.8861252189
  C         3.1563211209        9.8775420446       19.1343141144
  C        -0.9424288593       10.2839091071       28.2877616148
  C        -1.1482209365       11.6881604212       28.9286088851
  S        -0.9682872709       14.2806384542       28.9143565326
  H         6.3396935438       14.6661624555       23.9783445917
  H         4.9429330878       14.7291615629       22.7369630964
  C         6.1430683285       12.8848367340       22.7131666012
  N         2.0327414600        6.6521010572       20.7462069828
  C         2.6908963468        7.1148766249       18.5953566509
  C         3.4635554063        9.3316875367       17.8824752263
  H         3.4117566307       10.8723970975       19.3606552700
  C         0.2028126387        9.4537526099       28.9301942028
  C        -2.2016259334        9.3954010069       28.0984551709
  C        -1.3884889124       12.1612570397       30.2422923343
  C        -1.3417905520       13.5615225592       30.4047794260
  H         6.7953397154       12.4651451059       23.4388890905
  H         5.4026881349       12.0354114708       22.5030323446
  C         6.9103000001       13.3438118413       21.4468850899
  S         2.0161242788        5.2037197139       19.9555190274
  N         2.4656493706        5.7698994648       18.4653143639
  C         3.1619717753        7.8934258054       17.5604365621
  H         4.0523014813        9.8926165607       17.1520160321
  H         0.4646456899        8.7275791193       28.1770473194
  H        -0.1019660953        8.7862117878       29.7339872871
  C         1.5198502854       10.1715221969       29.2141799303
  H        -1.9360431174        8.4667404720       27.5577668121
  H        -2.5353574399        9.1504498150       29.0878144651
  C        -3.3295876610       10.0786085042       27.3770634032
  H        -1.6474579330       11.4555304368       31.0137870096
  C        -1.6791900713       14.3161552532       31.6991418455
  H         7.7364114630       12.6737876429       21.2424067285
  H         7.4392065386       14.2923043472       21.6247637414
  C         6.0257570713       13.4009115259       20.1385580854
  C         3.4443936276        7.2401680727       16.2650484558
  H         1.8991088126       10.6163447858       28.3133345405
  H         1.3482755417       11.0545208326       29.8616047171
  C         2.5352389685        9.3484335708       29.9337960574
  H        -2.9726438038       10.5003037245       26.4183433043
  H        -3.7521309601       10.8271277655       28.0070965910
  C        -4.4239009920        9.1112565361       26.9524981179
  C        -1.7701676489       15.7256631346       31.8100077655
  C        -1.7678693457       13.5929790804       32.9604115177
  H         5.3432122199       12.6236446320       20.0773113415
  H         5.3211509640       14.1755565107       20.2893639058
  C         6.9433462560       13.6135985831       18.8749330073
  H         3.5159697826        6.2608076365       16.3846371364
  C         3.8348433742        7.7481269762       15.0357150216
  H         3.0634911088        8.6219915843       29.3253445408
  H         2.0292029447        8.8800544168       30.7944266153
  C         3.6710925319       10.1992714681       30.4776144300
  H        -4.1397113493        8.5479637211       26.0068870483
  H        -4.6986528636        8.3517802157       27.6599578204
  C        -5.6497439471        9.8036356271       26.4336270060
  N        -1.5519414624       16.6359029568       30.7581365208
  C        -2.0531521600       16.3849714941       33.0201031254
  C        -1.9628507006       14.2877356129       34.1481248630
  H        -1.5387405932       12.5380065727       32.9934539390
  H         7.6886298057       12.8473210126       19.0155890114
  H         6.3053917648       13.5058125042       17.9892993463
  H         7.4382881894       14.6541146526       18.8660726493
  S         3.9619923647        9.4197412712       14.5629630678
  C         4.1349275930        6.7732918814       13.9556698041
  H         3.7721926035       11.2453738552       30.0270206002
  H         3.4687475176       10.2619188430       31.4892450780
  C         5.1048376632        9.5844059897       30.4024909072
  H        -6.1412645436        9.1403192283       25.7934515907
  H        -5.3237019567       10.6581946757       25.9005709164
  C        -6.5274277191       10.3463673683       27.5774500715
  S        -1.7958234411       18.1333542749       31.3007020342
  N        -2.2185552810       17.7610974683       32.8414564831
  C        -2.2919284298       15.7090007862       34.2179582254
  H        -1.9523046864       13.5983077282       35.0404895468
  C         4.3331479484        8.7865712793       12.9815058304
  N         4.3569781716        7.4564455334       12.8244259964
  O         3.9922937948        5.5678805348       14.0947345081
  H         5.8369687264       10.3091671106       30.8511649859
  H         5.3859031772        9.4250133716       29.3348623250
  C         5.2608728757        8.3118124960       31.1184833439
  H        -6.5254653753        9.5523663593       28.2971567279
  H        -6.0558834629       11.2545271479       28.0149673258
  C        -7.9495528845       10.7382802983       27.1678434923
  C        -2.5950672885       16.3932677327       35.4446130878
  S         4.7856677084        9.8095491698       11.5443920629
  C         4.4625858791        6.7500696474       11.5909299812
  H         5.8782840764        8.3927585487       32.0102967386
  H         4.2971709782        7.8855018844       31.3550823590
  C         6.0175411882        7.3013745846       30.2415310023
  H        -8.0530884281       11.6539129728       26.5988436615
  H        -8.5248196258       11.0217566549       28.0293858750
  C        -8.7690377610        9.6068963850       26.4629147685
  H        -2.1934185149       17.3547211631       35.3374489216
  C        -2.9006519212       16.0258030216       36.7146004080
  H         5.2031040964        7.2292325546       11.0121999278
  H         5.0350493196        5.8005353902       11.7798306041
  C         3.0478580831        6.4185800344       11.0037232131
  H         6.9987216156        7.7368485038       30.0231517623
  H         5.4381551298        6.9687502775       29.3628743653
  C         6.1580099398        5.9366372766       31.0353798151
  H        -8.2428141268        8.7091365654       26.6844083694
  H        -9.6856666699        9.7191855535       27.0236471986
  C        -8.9545364413        9.7853412281       24.9639490007
  S        -3.4103942726       14.4361397640       37.2165105139
  C        -3.1410018299       17.1215528870       37.6762724105
  H         2.7168951073        7.1607249822       10.2141359642
  H         3.0912455889        5.4595248902       10.5114561330
  H         2.1992107832        6.5295516570       11.6992912102
  H         6.5132045293        6.0549122181       32.1069631226
  H         7.0587731801        5.5143718052       30.5671611175
  H         5.2537384318        5.3102069142       30.9842773976
  H        -9.9539717770        9.9195456923       24.5349175164
  H        -8.7231802614        8.7259839137       24.6037103574
  H        -8.2563889691       10.5315310061       24.6060355638
  C        -3.7516215695       15.2401027878       38.7517808703
  N        -3.7410580051       16.5930396666       38.7093618864
  O        -3.0117484636       18.3039671124       37.4520501396
  S        -4.4638630353       14.3744112639       40.0770464827
  C        -4.1035545355       17.3722854633       39.9592446317
  H        -4.4820375722       18.3083912567       39.6498019698
  H        -4.9849545278       17.0010642387       40.4509580999
  C        -2.8264189965       17.4337827904       40.8290783577
  H        -1.9159952543       17.1006430161       40.2945752562
  H        -2.6256899682       18.5204097702       41.0631478251
  H        -2.9157394436       16.8819805662       41.7359141880
