352
 i =    73100, time =    73100.000, E =        24.8018258867
  H        11.3362921694        7.4322115308       32.0851960713
  C        11.2108647038        6.3787746394       32.2650173665
  H        12.2299139484        6.0579472782       32.2623309544
  C        10.3653017852        5.8190299771       31.1726882933
  C        10.7541596834        6.2702644844       33.6866910061
  C        10.8305314011        6.3601419003       29.7886153539
  H        10.1604064858        4.7840936169       31.0991312091
  H         9.3313503321        6.1965579921       31.3642825591
  H        10.2165338850        7.2091649667       33.8727204591
  H         9.9587566399        5.5576350984       33.8086455727
  H        11.5458178761        5.9768613276       34.4317728842
  C        10.2399448547        5.3544668380       28.7014873241
  H        11.8834362635        6.5297650359       29.7344813781
  H        10.3845876379        7.3283967142       29.7203059071
  C        10.7289428662        5.6551925883       27.2908902496
  H        10.4536712128        4.3131954545       28.9034171699
  H         9.1173924818        5.5288472095       28.7049670045
  C         9.7111202374        5.0039355970       26.3500698266
  H        11.8013971674        5.4268065939       27.0369941363
  H        10.5525695002        6.7379868092       27.0631374377
  C         8.4898472930        5.8862394853       26.1479407268
  H        10.2980361236        4.8737002635       25.4580010708
  H         9.4714783959        3.9670537742       26.6282811010
  C         7.3395698061        5.2964183896       25.3690754651
  H         8.0534686607        6.3339222513       27.0588754656
  H         8.7918864188        6.7002359032       25.5370886450
  C         6.8939341641        3.9713582970       26.0037692734
  C         7.8496689277        4.4934031778       24.1347780081
  C         6.1024213455        6.1697512669       24.9235662004
  C         7.1381375498        2.8731960988       25.1867214942
  C         6.4383738429        3.6288047022       27.2505143849
  C         7.7229543426        3.1851162201       24.0140483105
  C         8.2479064220        5.1241450231       23.0189354716
  H         5.5320084748        5.6189370039       24.1110572780
  H         6.5768552022        7.0583341793       24.4090842571
  C         5.2064716090        6.6222138438       26.0476931166
  S         6.7824128434        1.3178797682       26.0319654392
  C         6.4542008041        2.2629958301       27.4358830573
  H         6.2374361621        4.3052934773       27.9821453423
  C         8.1991410043        2.5897230023       22.8872753607
  H         8.1928466950        6.2130881816       23.0793093208
  C         8.6011019169        4.5243575904       21.8428762936
  H         5.1643113667        5.8997494321       26.8350631006
  H         5.5880610430        7.5283230293       26.4349157723
  C         3.7681456568        6.8153059055       25.5690845788
  C         6.0188437918        1.5432090995       28.7380207150
  C         8.6303366939        3.1979896099       21.6761291649
  H         8.0896426046        1.5625697903       22.9477335795
  C         8.9440866376        4.9884618225       20.5597350097
  H         3.3551444976        6.1614776133       24.8234614147
  H         3.4993576746        7.7529973612       25.1164356604
  C         2.8275340834        6.6774196746       26.8143602654
  C         6.0789801766        0.1449584254       29.1388903121
  C         5.5952042431        2.4112655250       29.8839426730
  C         8.9887076291        2.5113894501       20.4383943600
  C         9.1901894916        3.9092730431       19.7169156615
  S         9.3730891755        6.5506448928       19.8696682884
  H         1.9307310477        7.2747200940       26.6414292356
  H         3.3112357677        7.2641713240       27.5851865770
  C         2.5064745149        5.3143525194       27.3941432989
  N         6.4560495726       -0.8672267263       28.2349636119
  C         5.7274224930       -0.3284052796       30.3590943824
  C         5.3469142249        1.9434025141       31.1733642312
  H         5.5416526900        3.4927294656       29.7872753609
  C         7.7052631295        1.7684649080       19.8904161089
  C        10.3116549416        1.6363799155       20.6166456939
  C         9.6102359625        4.3869709740       18.4807484813
  C         9.5724486415        5.7489635783       18.3437282285
  H         1.8120386674        4.7994496961       26.6556227520
  H         3.4214563524        4.6494664533       27.4104390813
  C         1.7635560475        5.3768546118       28.8320477059
  S         6.3966457758       -2.3423009444       28.9983313259
  N         5.7623142080       -1.7638125782       30.3746252422
  C         5.3314981634        0.4969089900       31.4689916945
  H         5.2858268003        2.7202548201       31.9423770546
  H         7.3661824739        1.0069372255       20.5972648090
  H         8.0629566917        1.1354430886       19.0227820001
  C         6.4299277060        2.6700222567       19.7792959627
  H        10.4082055588        1.1598122196       19.6786393538
  H        10.1925161079        0.8797400175       21.4015224798
  C        11.5928903872        2.4757875271       21.0322034554
  H         9.8753292511        3.6443088177       17.8158144889
  C         9.8201566499        6.4828760423       17.0616828055
  H         1.3252484035        4.3857902771       29.0417172518
  H         0.9178103636        6.0717084051       28.6834351291
  C         2.7393398228        5.7955870501       29.9838289263
  C         4.9783937321       -0.1692429025       32.6648392146
  H         6.6077590571        3.4904110601       19.0471110945
  H         6.2600314124        3.0732100721       20.7274552976
  C         5.1323679672        1.9315658781       19.3965650487
  H        11.3000778828        3.0888540716       21.8843995588
  H        11.7303522198        3.1933730525       20.2657344804
  C        12.7745306281        1.4912708172       21.4434257690
  C         9.8755578866        7.8952465421       16.8779977924
  C        10.1544398544        5.7350629934       15.9070135891
  H         3.5692522311        5.1004068961       29.9128296938
  H         3.1359174217        6.7804568525       29.9245546772
  C         2.0519481539        5.7148617228       31.3323787949
  H         5.3256538767       -1.1899870143       32.7812448699
  C         4.6343850351        0.3135671693       33.8743780084
  H         4.2611780710        2.3296804245       19.8371230083
  H         5.2918264046        0.9415057334       19.7500927501
  C         4.7836445617        1.9491089047       17.9614716546
  H        12.5190649730        0.9409899528       22.3556247707
  H        13.0337407386        0.8024955307       20.6432050293
  C        14.0014102383        2.4053751353       21.7645389004
  N         9.5386504482        8.8235294046       17.8975083274
  C        10.0596241207        8.4798655624       15.6313391171
  C        10.4012389441        6.3290244093       14.5961644538
  H        10.1646238077        4.6806596608       15.9527650586
  H         1.1260893606        6.2713807115       31.2675796649
  H         1.8425729587        4.7304030789       31.5987818416
  H         2.7156885618        6.0970120660       32.1880896100
  S         4.2659444485        1.9462278638       34.3113311827
  C         4.5585301741       -0.5890918570       35.0589061551
  H         4.9650949698        2.9136112679       17.5148205168
  H         5.3493742930        1.2475217437       17.3791740611
  C         3.4055839750        1.3353013185       17.7576015756
  H        13.6140677675        3.4534613118       21.9213640874
  H        14.6098108681        2.5005251686       20.8708655166
  C        14.9455194059        1.9418174977       22.9420121579
  S         9.7359964683       10.3587605913       17.2773344392
  N        10.1352797071        9.9329115767       15.7867178712
  C        10.4077662237        7.8040373364       14.4498452065
  H        10.5254547838        5.6570626866       13.7392483551
  C         4.1344136482        1.4321393395       36.0109805067
  N         4.1911682608        0.0950090350       36.1991873771
  O         4.7702741989       -1.8118332501       34.9388836359
  H         3.3876112785        0.9480910405       16.7436697267
  H         2.6583519003        2.1018706631       17.8680222532
  C         3.1032764327        0.0042282333       18.5698612965
  H        14.3866466200        2.1107849337       23.8278060605
  H        15.1783189510        0.8895004810       22.9329575019
  C        16.2151044972        2.6973123474       23.0795377092
  C        10.7621603477        8.5490331173       13.2737570738
  S         3.7681436981        2.5986792924       37.2828665765
  C         4.1984482584       -0.4939246263       37.4805032285
  H         4.0132451032       -0.6272913105       18.5379763595
  H         2.8477514703        0.1370763023       19.6492155186
  C         2.0287317828       -0.8477482527       17.9193564718
  H        16.0368189453        3.6964125134       23.5503930537
  H        16.6711927727        2.9510367925       22.1525204925
  C        17.3639835242        1.9580731862       23.7443815816
  H        10.2683488781        9.5119912649       13.1991627731
  C        11.3451387019        8.1346404816       12.0515055632
  H         3.4053120916       -0.0926618432       38.1183336481
  H         3.9038067715       -1.5445118137       37.4603725358
  C         5.5206829244       -0.2665263296       38.2815738959
  H         1.2229924352       -0.2326547333       17.7838938395
  H         1.7359990688       -1.4722673832       18.7157994353
  C         2.3067795197       -1.6400184416       16.7136367146
  H        17.9577069615        2.5726773042       24.3930690514
  H        16.9702549087        1.1585874418       24.2552543730
  C        18.3934998997        1.5079134959       22.7169792681
  S        11.9339235852        6.5664254125       11.5784082627
  C        11.4360638500        9.1477726531       10.9515066424
  H         5.6491410723        0.7532010573       38.7161361085
  H         5.3287837670       -0.9477547575       39.1103715060
  H         6.3448924012       -0.7430176311       37.7850133324
  H         3.3468508747       -1.8758514846       16.7198526913
  H         1.9973572196       -1.1029158574       15.8396819660
  H         1.6751342689       -2.4945853989       16.6614099893
  H        18.9209241151        2.4586382650       22.3431451752
  H        17.9580931113        1.0002448464       21.8219227893
  H        19.1624597655        0.8882731368       23.2216791903
  C        12.4549915045        7.3603337945       10.0165682130
  N        12.1724209836        8.6598952132        9.9311059577
  O        11.0615897021       10.3426223620       11.0771376205
  S        13.1973320166        6.4548529357        8.6967969682
  C        12.2692926560        9.3373931560        8.6628611254
  H        12.1965307064       10.3746028165        8.9069330290
  H        13.2494327765        9.3485316315        8.2854256202
  C        11.0882471034        8.9343414254        7.7177470319
  H        11.2707205023        9.0205913233        6.7105899215
  H        10.7669755787        7.8865656059        7.9173733812
  H        10.2603869928        9.4434506483        8.0387029534
  H        -3.6174215339       14.7616046881       16.3556766353
  C        -3.1488151286       13.8213576793       16.4993287411
  H        -3.6772528827       13.2486092301       17.2438435914
  C        -1.7714728059       13.9951334428       17.2633853973
  C        -3.0173086854       13.2477327654       15.0762892311
  C        -1.9617056848       14.6599984117       18.6512054285
  H        -1.4418647981       13.0064695216       17.5049145913
  H        -1.0040088687       14.4075008972       16.5582635035
  H        -1.9613240754       12.9035205475       14.9162873906
  H        -3.6578311601       12.3919024746       14.8804505727
  H        -3.2050833765       13.9090602051       14.3574534031
  C        -0.9403082662       14.2325302875       19.7954678291
  H        -2.9622904529       14.4874293380       19.0540419099
  H        -1.9700640884       15.7600696425       18.4702096028
  C        -1.7044981128       14.1703589208       21.1836218091
  H        -0.2946532718       13.3535293536       19.5344274600
  H        -0.2383155081       15.1553370119       19.7979653739
  C        -0.8428107692       13.5493933865       22.2671682637
  H        -2.5695198813       13.5115296168       21.1798220338
  H        -1.9743429795       15.1682479457       21.4145097727
  C         0.4569162245       14.3123904890       22.5316685446
  H        -1.3131929221       13.4428907582       23.2451632190
  H        -0.5971491236       12.5235271498       21.9933365543
  C         1.5653683219       13.5310261926       23.2967843645
  H         1.0440881862       14.5545912160       21.5879013002
  H         0.3052617979       15.1775741544       23.1265446062
  C         1.7787606777       12.1510355414       22.6158490752
  C         1.0419654210       12.8681574499       24.5384205469
  C         2.9014612485       14.3476862934       23.5941798741
  C         1.3741708961       11.0890569152       23.3834166161
  C         2.2962466115       11.8289356202       21.2935062648
  C         0.8849133530       11.4901489300       24.5910917392
  C         0.5335793895       13.5775479017       25.6555417161
  H         3.1429798291       14.9263586464       22.6966705470
  H         2.7154742284       15.0685318003       24.3953313393
  C         4.0459399357       13.5107326979       24.0894032309
  S         1.6998309003        9.6284535891       22.5802010504
  C         2.2588988820       10.4659028897       21.0979312861
  H         2.5871349806       12.6123296029       20.6093927572
  C         0.3276906710       10.8833457472       25.6952387562
  H         0.5005061323       14.6671957504       25.5885558288
  C         0.0199560070       12.9952332419       26.7655394065
  H         4.0534544605       12.5875669017       23.4671064466
  H         3.9027363482       13.1567446977       25.1353195485
  C         5.4108672466       14.2489935691       24.0174785156
  C         2.6366945230        9.7221644427       19.8108460574
  C        -0.0529070334       11.6538949501       26.7894198092
  H         0.1192852246        9.8049427564       25.6508791886
  C        -0.4601858836       13.3222419887       27.9902461983
  H         6.1732503397       13.7400267925       24.5769219934
  H         5.3627372511       15.1793095197       24.6060724155
  C         5.8723077864       14.3537287527       22.5670991149
  C         2.6167130847        8.3606165326       19.5350480470
  C         2.9138564593       10.5629494830       18.6383174386
  C        -0.5349057032       10.9111847216       27.9957034578
  C        -0.6647475143       12.2096053474       28.8394639680
  S        -0.7020207053       14.8159208452       28.8288763971
  H         6.5178860174       15.1998605512       22.5776229466
  H         5.0603452473       14.6932418960       21.8313773819
  C         6.7364587161       13.0875801654       22.1185787045
  N         2.5515901052        7.4046535451       20.5215664445
  C         2.8167832075        7.7956111763       18.3014276844
  C         3.1487602597       10.0749154738       17.3428780527
  H         3.0073112379       11.6774371412       18.7819024131
  C         0.4970432309        9.9857389700       28.7139155964
  C        -1.9446899370       10.2756251535       27.7645755708
  C        -1.1969440042       12.5975383410       30.0890368140
  C        -1.2891482062       14.0005669541       30.2313759466
  H         7.3441672230       12.6746657009       22.8851797489
  H         6.1056514824       12.1964366657       21.9240991562
  C         7.5984003108       13.3217765249       20.8534729874
  S         2.6162822051        5.9300299979       19.9006924896
  N         2.8666450591        6.3826626309       18.3171922778
  C         2.9938801343        8.6286297140       17.1285969699
  H         3.4902034869       10.7566580675       16.6483191372
  H         0.9615310599        9.3506741126       27.9674713940
  H        -0.1587093927        9.4540162109       29.3814538628
  C         1.6723655043       10.6227834260       29.3755248834
  H        -1.7633450871        9.4535165263       27.0751455507
  H        -2.2055324689        9.6304882901       28.5848585418
  C        -3.0448714691       11.1480093681       27.2390473952
  H        -1.3891264606       11.8275671457       30.8252165879
  C        -1.6719939041       14.7665325324       31.4960685729
  H         8.0722380174       12.3450621845       20.5411016668
  H         8.2635498971       14.2063402635       21.0214683978
  C         6.5528054472       13.6414117288       19.7564132213
  C         3.0780351354        7.9451309145       15.9025213787
  H         2.0665429009       11.3564837525       28.7278724770
  H         1.2786387717       11.2746503695       30.1728623191
  C         2.6732044257        9.7491842335       30.0499808752
  H        -2.8324689728       11.5737116172       26.2521256970
  H        -3.1914433076       12.0365490684       27.8959854362
  C        -4.3641819573       10.4528312454       27.2210717327
  C        -1.6443302821       16.1626756691       31.6561426203
  C        -1.8456444451       14.0027298693       32.7456293414
  H         5.6695291452       12.9519841933       19.8853341425
  H         6.0026246294       14.5511283225       19.9565472894
  C         7.1692015250       13.5276872848       18.3733530105
  H         2.8028044851        6.9137827135       15.9532155712
  C         3.4681983833        8.2906711938       14.6285671362
  H         3.1067613206        8.9919645657       29.4116228640
  H         2.0274684063        9.1449722939       30.7768739238
  C         3.7851539642       10.5395235858       30.8304517685
  H        -4.1400801498        9.5138712633       26.8466592510
  H        -4.7423331560       10.2738197677       28.3017851629
  C        -5.4546962012       11.2869998388       26.4676852676
  N        -1.4167033990       17.0814165345       30.6331436396
  C        -1.7730153686       16.7897316206       32.9111716445
  C        -2.1075483300       14.5931253088       34.0126897849
  H        -1.7981830533       12.9363003721       32.6678118069
  H         6.3047283214       13.2665373996       17.7419407425
  H         7.5923511520       14.4362290535       18.0172260464
  H         7.8921116921       12.6305404829       18.3042987419
  S         3.9222921738        9.7687262848       13.8760809941
  C         3.4693755139        7.1613106746       13.6223615878
  H         3.7101559778       11.5879049464       30.4894772673
  H         3.4735997261       10.6391682743       31.8653569661
  C         5.1737177205        9.8852987563       30.7678311384
  H        -4.9065167806       12.1219175304       26.0655313026
  H        -6.1921125739       11.6807872033       27.2238511224
  C        -6.2718925571       10.6214590476       25.3780907398
  S        -1.3032695884       18.5556746359       31.2506108556
  N        -1.6473775533       18.2000048024       32.7863250824
  C        -2.0809006766       16.0959264273       34.1260759559
  H        -2.3666490204       13.9600988128       34.8144757749
  C         4.1341749005        8.8758506458       12.3577043938
  N         3.9284022210        7.5291501690       12.4601123070
  O         2.9773188433        6.0553763052       13.8669540030
  H         5.9103566641       10.5330718304       31.2437057863
  H         5.3815796228        9.7626731673       29.6714308274
  C         5.1865255331        8.5766869580       31.5523425098
  H        -5.6699691242       10.5407035555       24.4325856902
  H        -6.4908329407        9.6740988430       25.8458686218
  C        -7.4373838272       11.2787113603       24.8691550065
  C        -2.3625131994       16.8543594497       35.3398514328
  S         4.6326320641        9.6042216396       10.8534893305
  C         3.7691032059        6.6511367688       11.3249080335
  H         5.3614428532        8.8656143275       32.5697847918
  H         4.0945529270        8.1920528651       31.5389926393
  C         6.2036584902        7.5355036084       31.1389498355
  H        -7.1466984589       11.6870349974       23.9379989844
  H        -7.6150160418       12.1207857845       25.5263501700
  C        -8.7335248599       10.4703661724       24.6763578483
  H        -2.1989686723       17.8402258246       35.1425271604
  C        -2.7704725943       16.5248421731       36.5882954497
  H         4.6023047892        6.7935716998       10.6931026916
  H         3.6969426542        5.6365333892       11.6521407594
  C         2.3304256345        6.9272352544       10.6728476942
  H         7.2032600798        7.6717586337       31.4906098238
  H         6.2137971655        7.4119165330       30.0360070554
  C         5.8737179511        6.2427008054       31.8462926309
  H        -9.4105575460       11.0131691933       24.0830943551
  H        -8.6087282664        9.4852314575       24.2936258396
  C        -9.3957449590       10.1324098059       26.0144586824
  S        -3.2296659133       14.9740549606       37.1494302617
  C        -2.8779287581       17.6368929903       37.5437420112
  H         1.5274248246        6.7594908747       11.4218000345
  H         2.2561502608        7.8958274498       10.1895559877
  H         2.1122285151        6.2549156675        9.8783915902
  H         6.6603358872        5.5351071170       32.0580829402
  H         4.9888586337        5.7070800138       31.4028982735
  H         5.5892376089        6.4732998891       32.8759736179
  H        -8.7991398018        9.6967181305       26.8113605683
  H       -10.3184888480        9.5607491387       25.8888331525
  H        -9.7509429066       11.0553793048       26.3789050364
  C        -3.5817689764       15.7839495629       38.7096404981
  N        -3.4523118783       17.1471222860       38.6799504955
  O        -2.5469104621       18.8064297217       37.2580984063
  S        -4.4407794816       14.9802478931       40.0579789818
  C        -3.6187834847       18.0942005019       39.8255845026
  H        -3.9580182223       19.0289264684       39.3265566188
  H        -4.4376873157       17.8427925499       40.4466807898
  C        -2.4125258663       18.3377447307       40.7127670365
  H        -2.1565693196       19.4227949046       40.6719932442
  H        -2.5229274704       18.0061167231       41.7701491410
  H        -1.5680543729       17.8361662469       40.1865076460
