352
 i =    46700, time =    46700.000, E =        24.5348534280
  H        12.2272450778        7.4253162036       33.4916306666
  C        11.9718248997        6.6271189353       32.7875145250
  H        12.8720812869        6.0707190783       32.4913736220
  C        11.4008338081        7.2103603161       31.4901726865
  C        10.9984281621        5.5160150653       33.2624997507
  C        11.7531642210        6.4466258275       30.1424747727
  H        10.2897138941        7.3779398605       31.5990054295
  H        11.7856250063        8.2399743784       31.4839056102
  H        10.8326239237        4.8871189378       32.3978119492
  H        11.5279909408        4.8880091408       34.0685760667
  H        10.0381002296        5.7986213247       33.5988556411
  C        10.5636040182        6.2642063994       29.1620147697
  H        12.0977429627        5.4418959292       30.4516124280
  H        12.5795117651        7.0194491964       29.7552044380
  C        10.9190306338        5.9747125282       27.6763274038
  H         9.9882087207        5.4684111245       29.5585422409
  H         9.9666806772        7.1753317578       29.2634834537
  C         9.9214855389        5.2750473710       26.7620453941
  H        11.8490626631        5.3508452693       27.6491177990
  H        11.3515727993        6.7699629686       27.1381162840
  C         8.5795476387        6.0749778075       26.3173040763
  H        10.4906025231        4.8634463280       25.8911667664
  H         9.5219379743        4.5252578803       27.3642367108
  C         7.4795338121        5.2405310293       25.5288509376
  H         8.1686649602        6.5187374864       27.1933344262
  H         8.8324052448        6.9138657061       25.7105293803
  C         7.0819353557        3.9884267290       26.2130528239
  C         7.8224986362        4.5422125211       24.2925890671
  C         6.1656343391        6.1330410707       25.2354284153
  C         7.2020776448        2.8331931952       25.4452533205
  C         6.6119442337        3.7291369016       27.4838728631
  C         7.6876878173        3.2012697591       24.1884417860
  C         8.1925794613        5.2430496798       23.1092341912
  H         6.3629682424        6.7966444687       24.4602548196
  H         5.8039995667        6.7904124042       26.1455010732
  C         4.8969299382        5.3479631188       24.8591330620
  S         6.5633578931        1.4251967611       26.1520702732
  C         6.3413064756        2.3966383543       27.6299525684
  H         6.3078814431        4.5430875794       28.1833269812
  C         8.0444948754        2.5829311411       23.0183913864
  H         8.3922385467        6.3536711532       23.0821948280
  C         8.5576929165        4.5864859358       21.9579832151
  H         5.0572994780        4.7783920358       23.9668465320
  H         4.7252260977        4.7167833195       25.6289424757
  C         3.6419629346        6.1809648765       24.6746324632
  C         5.8660514544        1.7503048623       28.8967987466
  C         8.5022507300        3.2179671682       21.8811747330
  H         8.0103245764        1.4967138802       22.9189328848
  C         8.9605268489        4.9004239705       20.6776169516
  H         2.9741968451        5.7326815743       24.0351219099
  H         3.8985970487        7.0969959518       24.0929547578
  C         2.9755662304        6.3996291639       26.0330417909
  C         5.8695851551        0.3107169474       29.2075266466
  C         5.4152863207        2.6370245130       30.1132653160
  C         9.0495046313        2.4737002086       20.6829000104
  C         9.3490697087        3.8163931346       19.9534034060
  S         9.1613117863        6.3699407170       19.8577091205
  H         2.3390364465        7.2644811433       26.0057915128
  H         3.7488018191        6.6016629867       26.8014081811
  C         2.1782842024        5.1114066404       26.4933228047
  N         6.1115742583       -0.6855928405       28.2748299916
  C         5.5573868062       -0.2237728446       30.4105426003
  C         5.1332013677        2.0164495544       31.3122557790
  H         5.1465952293        3.7160054610       30.0252485016
  C         7.9515125326        1.6555215035       19.8972813056
  C        10.3728591338        1.7013865373       20.9185320357
  C         9.6017401391        4.2054905588       18.6293081150
  C         9.5623414554        5.5272711881       18.3850322495
  H         1.6055759111        4.7089525455       25.6041179387
  H         2.8515448068        4.2736091598       26.7927516856
  C         1.2349400848        5.4202525475       27.6722092490
  S         5.8375801599       -2.1092934481       29.0221145617
  N         5.5842514170       -1.5984691409       30.4908215373
  C         5.2863804271        0.5518958612       31.5653024343
  H         4.7876097625        2.6631046301       32.0930229783
  H         7.5693153969        0.8953708832       20.5555516608
  H         8.4830190866        1.2322112490       18.9857064281
  C         6.7270442362        2.5268637453       19.5079062476
  H        10.0793106308        0.6853628898       20.7781245220
  H        10.6095939022        1.8984540660       21.9336966946
  C        11.5224267396        1.9504495738       19.9779283253
  H         9.6871664995        3.4053328142       17.8753586384
  C         9.9251386646        6.2092331343       17.0359340910
  H         0.5433270834        4.6081499575       27.7200510977
  H         0.7549200748        6.3628787746       27.5225109656
  C         2.0556653230        5.5925046708       28.9618560117
  C         4.9554994423       -0.1031451828       32.7932677184
  H         6.9581212565        3.1946508069       18.6117031775
  H         6.4978507602        3.1201734288       20.3768919050
  C         5.4080273731        1.7170839202       19.2657299346
  H        11.6841879764        2.9800465386       19.8712490720
  H        11.2986929876        1.5983897570       18.9349376341
  C        12.8492595918        1.3279118524       20.4384046338
  C         9.9273228022        7.6326119900       16.8642338439
  C        10.1019552964        5.4793922449       15.8280499474
  H         2.7844373795        4.7360400018       28.9549216735
  H         2.6875276408        6.5080290957       29.0396976359
  C         1.2485300740        5.4402099188       30.2633527419
  H         5.1321104856       -1.1718169198       32.8926285587
  C         4.5983852158        0.3969969967       34.0264052574
  H         4.7823396845        1.8349302338       20.1902108396
  H         5.4012967990        0.6604368065       19.0870321225
  C         4.6387462371        2.2821920937       18.0778306683
  H        12.6905038332        0.8486842115       21.4069876764
  H        13.2325418760        0.5646266896       19.7490475053
  C        13.9167144348        2.3686948488       20.6647798904
  N         9.6628986723        8.5405550812       17.8763770328
  C        10.1525561502        8.3104665266       15.6653574397
  C        10.4676420627        6.0557941262       14.6472127896
  H        10.0999664516        4.4354282703       15.8377680727
  H         0.3073867218        4.8333773911       30.2445578088
  H         1.8420885002        5.0923802445       31.1411466767
  H         0.8499668796        6.4114199950       30.6485954092
  S         4.3157501956        2.0202241053       34.5098182150
  C         4.3998745518       -0.5425137876       35.1985295239
  H         4.4454601378        3.4156137880       18.2830420370
  H         5.1916255185        2.2993933596       17.1318289355
  C         3.3733125412        1.4961762007       17.8462105116
  H        13.6976242586        3.2325721998       20.0782826788
  H        14.9036245797        1.9118657764       20.5033555582
  C        13.9797588577        2.8600129527       22.1514805648
  S         9.7092781911       10.0570562991       17.3287923932
  N        10.1215161936        9.7018090635       15.8119475324
  C        10.5392478057        7.5439396224       14.5584575813
  H        10.6242802709        5.3640625471       13.8286718246
  C         3.9677857650        1.4687295821       36.1315044680
  N         4.0090714310        0.1593520999       36.2807912267
  O         4.4032767747       -1.8023974575       35.1197098316
  H         2.5473838735        1.9854173886       17.3687967252
  H         3.0259675534        1.3239263517       18.8168335637
  C         3.5135271963        0.1293427157       17.1987306697
  H        14.3093838476        3.8527139424       22.2987920687
  H        12.9984176007        3.0749131559       22.5271013250
  C        14.7980120814        1.8999881916       23.0527854301
  C        10.7706719018        8.2850689391       13.3306087486
  S         3.6343647083        2.5532161764       37.4935883559
  C         3.8692225846       -0.4671179258       37.5624323929
  H         4.0875219854        0.2908258691       16.2706420143
  H         4.0331359172       -0.5215178304       17.9793605715
  C         2.2000365937       -0.5850246989       16.8789710861
  H        14.7100106606        0.9451939848       22.5598202615
  H        14.3432793632        1.7490487472       23.9861822094
  C        16.2711816438        2.2696227911       23.2497588102
  H        10.5279679374        9.2969600629       13.5135731965
  C        11.3221681580        7.9156501639       12.1014309299
  H         3.2317079536        0.0479909121       38.3002832445
  H         3.3601962818       -1.4068837466       37.4343870816
  C         5.2655702140       -0.6447120508       38.2303785452
  H         2.2695927503       -1.4133244900       16.1403014959
  H         1.5034413631        0.1906766578       16.4692586215
  C         1.6663288369       -1.2107032152       18.1332650656
  H        16.4052977248        3.3583068406       23.2820128853
  H        16.6674494215        1.7272226427       24.0934252451
  C        17.0061354102        1.7646723008       22.0328708592
  S        11.9739560870        6.3573493241       11.6450428615
  C        11.4327837811        8.8731842709       11.0119666811
  H         5.5840483533        0.1544358838       38.8245436539
  H         5.2807963969       -1.3908361482       39.0562115473
  H         6.0828050673       -0.8814349787       37.4870108453
  H         1.4767129918       -0.3431613759       18.8862129351
  H         2.1114521080       -1.9878660622       18.6503747902
  H         0.6157846587       -1.4835940836       17.9608505056
  H        16.8118399595        0.7359658156       21.8726204330
  H        18.1193806826        1.7073885958       22.1668921471
  H        16.8084210242        2.2565384627       21.1282770143
  C        12.3118648225        7.0067430655       10.0789632879
  N        12.0352851511        8.3049322112        9.9370139679
  O        10.9499659022       10.0295188021       11.0592674016
  S        13.2006145450        6.0943339457        8.7893811265
  C        11.9843916498        9.0188310798        8.6597097187
  H        11.8741084796       10.0658798861        8.9033017874
  H        12.8106972728        8.9227440352        7.9949067036
  C        10.7020691379        8.6915950252        7.8613571497
  H         9.8552484270        8.6426416866        8.5437111656
  H        10.6364040848        9.4758491216        7.0633502036
  H        10.6962773260        7.7116655014        7.4608726390
  H        -1.2326634588       13.1788714341       16.9301583457
  C        -1.8281867473       14.0251635619       16.5257128707
  H        -1.1105925000       14.6830645976       16.1140307523
  C        -2.4731719358       14.8337317610       17.7118977849
  C        -2.7414163842       13.4808903089       15.4861199226
  C        -3.1723845574       13.9793045153       18.7370745189
  H        -1.7705390677       15.5354370388       18.1688449978
  H        -3.2114830233       15.4782901406       17.2165088571
  H        -2.1592446473       12.8651125843       14.7552729439
  H        -3.2854173414       12.6030113001       15.9503786869
  H        -3.4322935752       14.1666419124       15.0966111804
  C        -2.1507635305       13.3769150405       19.6934158814
  H        -3.6778880425       13.2783549335       18.1357148925
  H        -3.8318675165       14.5841801666       19.3016745018
  C        -2.4596186914       13.4022317302       21.2031327734
  H        -2.0585179284       12.2973285825       19.5099989195
  H        -1.2565471947       13.8757888553       19.5082567120
  C        -1.3685107817       12.7776398407       22.0944825879
  H        -3.4277275570       12.9187086829       21.4599038397
  H        -2.7137027007       14.4361684499       21.5591816118
  C        -0.1204744182       13.6869918478       22.2766684538
  H        -1.8919034193       12.5931962420       23.0104734906
  H        -1.1016885342       11.8225486756       21.6173328918
  C         1.0042953615       13.0163340075       23.0889714666
  H         0.2653957353       14.0318677435       21.3352561679
  H        -0.3098464971       14.5948622554       22.8248917373
  C         1.4416669970       11.6664340079       22.3197660637
  C         0.5913319835       12.2697897029       24.2729007170
  C         2.2467462621       13.9420551380       23.4112173413
  C         1.1004315008       10.5639455307       23.1004327395
  C         2.0789389462       11.2657616028       21.1336007904
  C         0.6185221275       10.9143284729       24.3386813034
  C         0.1141175562       12.9950365368       25.4073368706
  H         2.4320514432       14.4965865112       22.4568123572
  H         2.0293393523       14.7122004257       24.1423325508
  C         3.5146623828       13.1584899426       23.7671537926
  S         1.4755522223        9.0697825416       22.3368712541
  C         2.1103484619        9.9291829090       21.0287750115
  H         2.3655962909       11.9852752336       20.4772762692
  C         0.2159295863       10.3130765482       25.5377109682
  H         0.1356562896       14.0936651505       25.2822152905
  C        -0.3415495168       12.3210742077       26.5304340980
  H         3.8597479358       12.6770439957       22.8772330142
  H         3.2125026356       12.4519549313       24.4694825643
  C         4.7204642585       13.9689631197       24.2218192001
  C         2.6568332105        9.1529439332       19.8201029625
  C        -0.3056088506       10.9623934459       26.6111097311
  H         0.3420254753        9.2704670952       25.6197281550
  C        -0.6682520682       12.7176577347       27.8205764388
  H         5.3976015243       13.3383868396       24.7342487650
  H         4.3219201329       14.6983711038       24.9220327099
  C         5.4596765235       14.5276580508       23.0981816587
  C         2.6354372713        7.7270020160       19.6153847727
  C         3.1072792561        9.8960067312       18.6436024613
  C        -0.6850993853       10.2752690073       27.8484354844
  C        -0.9349606735       11.5662361585       28.5891930066
  S        -0.9156932826       14.1279635972       28.6740424898
  H         5.9526197202       15.4691959254       23.4135751895
  H         4.8269324274       14.8969733336       22.3120844241
  C         6.3435803454       13.4150167153       22.4395486302
  N         2.3663178447        6.7645305772       20.5666630061
  C         2.9090178940        7.1609438079       18.3811520651
  C         3.4630370239        9.2767623952       17.4809103596
  H         3.1382922019       10.9767656937       18.6797929854
  C         0.5210956272        9.4829903095       28.4622026418
  C        -1.9930532240        9.4371924819       27.6947612196
  C        -1.2416458629       11.9251083220       29.9168384827
  C        -1.2529204878       13.2875383818       30.0509521122
  H         7.1798612214       13.2166563084       23.1759711066
  H         5.8636978463       12.4402012239       22.3565038935
  C         6.8983638946       13.8194055843       21.0515017237
  S         2.3373892307        5.2707546358       19.8750358526
  N         2.7519052438        5.8159625751       18.3333296968
  C         3.3419515801        7.8466016021       17.2176597950
  H         3.7975910689        9.8993342070       16.6936406715
  H         0.8965471545        8.6285764788       27.7914434485
  H         0.1871301513        9.1338806005       29.4430410620
  C         1.7609612543       10.2904628868       28.8811851642
  H        -1.8812428787        8.7303401216       26.8680775681
  H        -2.2999138086        8.9663919482       28.6357706899
  C        -3.2194461620       10.2865352148       27.4124627065
  H        -1.4646604105       11.1734994648       30.6785399661
  C        -1.4730463832       14.0719990618       31.3322602542
  H         7.9820312530       13.9741894577       21.1254642417
  H         6.5390257576       14.8154021568       20.7195686981
  C         6.6261938532       12.8737803572       19.9026160132
  C         3.6138437523        7.2578243806       15.9887567900
  H         2.0786258059       10.8388203637       28.0264292782
  H         1.4164489413       11.0000277497       29.6236122712
  C         2.9972296765        9.3984933235       29.3163701634
  H        -3.1426736395       10.7961905880       26.4649540387
  H        -3.4224412967       11.0648925709       28.1838684857
  C        -4.4589556921        9.3581374518       27.2250632094
  C        -1.5911467020       15.4867277064       31.4854406802
  C        -1.4960044579       13.4000900189       32.6210783833
  H         7.2065008224       13.2486386851       19.0465219068
  H         6.9065663511       11.9023465148       20.2515284809
  C         5.2047013066       12.9370914936       19.4247165781
  H         3.5841366701        6.1720560311       15.9986632416
  C         3.6531902137        7.7184963511       14.6858937511
  H         3.3585296894        8.8994841454       28.4534899152
  H         2.6298952372        8.5390296221       29.9788201657
  C         4.1047702327       10.2139214297       30.0381224502
  H        -4.3648053861        8.5152695811       26.5874282661
  H        -4.6001216755        8.9552611259       28.1873709482
  C        -5.6953448670       10.1986898683       26.9762785663
  N        -1.4193059039       16.3322739724       30.4155086062
  C        -1.8822524534       16.2007870262       32.6296245434
  C        -1.9666064632       14.0434476675       33.7895002849
  H        -1.4278947504       12.3435669983       32.5845715093
  H         4.4268312201       12.4887177737       20.0492166340
  H         4.9678317759       13.9703708309       19.2216935391
  H         5.1925471129       12.4670625429       18.4606117302
  S         3.9223274459        9.3463060240       14.2067096199
  C         3.6341457282        6.8009806238       13.5417984432
  H         4.5416167695       10.8953034034       29.2753997312
  H         3.6458785276       10.8905984146       30.7685555373
  C         5.1687437917        9.4899683313       30.9038024754
  H        -5.4531688204       11.2551096412       26.6714269004
  H        -6.1455003194       10.2279012047       28.0037298445
  C        -6.7353911135        9.5228420702       26.0123458586
  S        -1.5494922317       17.8941669547       30.9307048253
  N        -1.8321854159       17.6194038274       32.4990418269
  C        -2.0726470096       15.5333656718       33.8560104102
  H        -2.0879547944       13.4378795411       34.6679369868
  C         4.1267051030        8.7497997274       12.5744241174
  N         4.0540979717        7.4124626225       12.4429827937
  O         3.3701252050        5.6473263914       13.5710048670
  H         4.7403761463        9.1250546045       31.8278281310
  H         5.9442657814       10.2196686477       31.1224976887
  C         6.0259335947        8.4885349310       30.2644998859
  H        -6.3898033246        8.8175830703       25.2358565447
  H        -7.1825512989        8.8627613193       26.7456241058
  C        -7.6871995728       10.5350319318       25.3682365606
  C        -2.3972011788       16.3146322721       35.0803011748
  S         4.3855454264        9.8113836760       11.2341905274
  C         4.1288638445        6.8300032130       11.0981208503
  H         5.4513631697        8.1522324504       29.4524522344
  H         6.9644438129        8.9835295354       29.9736784639
  C         6.3132849254        7.2860131645       31.0926813659
  H        -7.0632648060       11.0327169567       24.6132277537
  H        -7.8769913024       11.3168598944       26.0982478660
  C        -8.8441120006        9.9449403514       24.6478745171
  H        -2.4005803373       17.3802556553       34.9575788654
  C        -2.8320373376       16.0583642687       36.3584783402
  H         4.8046176173        7.3071465038       10.4214733898
  H         4.5101495297        5.8387534850       11.1977017138
  C         2.6829066635        6.7191199461       10.5590754571
  H         6.9566954658        7.5201253594       31.9334811459
  H         6.9095884365        6.5985290699       30.4128982861
  C         5.1013085398        6.5146532139       31.5331356138
  H        -9.0257403042       10.5539654881       23.7994967837
  H        -8.5928548385        9.0217760515       24.1839385330
  C        -9.9729384864        9.7644480775       25.6174678117
  S        -3.2220927200       14.5149093327       37.0227449085
  C        -3.0938801026       17.1480581054       37.3045003759
  H         2.3209078410        7.6874555073       10.2194353911
  H         2.5680318548        5.9093883871        9.7718320260
  H         1.9627863759        6.4023307172       11.3387103044
  H         4.4316006502        6.2168350974       30.7424783541
  H         4.5996846509        7.1665237748       32.2044897332
  H         5.5164291086        5.6107476120       32.1033431557
  H       -10.5479411224        9.0212807671       25.0844272214
  H       -10.5380817428       10.6054398946       25.8380729207
  H        -9.6102233334        9.3426399090       26.5840800870
  C        -3.6764180788       15.3677659312       38.4989413652
  N        -3.6678502376       16.7029558557       38.4043967378
  O        -2.9101362030       18.3504622298       37.0284408868
  S        -4.3261291909       14.6919644432       39.9887195482
  C        -3.9567480907       17.5974110850       39.5600442328
  H        -4.1731451930       18.6075004021       39.1317704606
  H        -4.9014896732       17.3443777785       40.0744198810
  C        -2.7926404140       17.6187082087       40.5925874914
  H        -2.4422748104       18.6109925916       40.7851665064
  H        -3.0959690793       17.3031496183       41.6202906646
  H        -1.9205231943       17.1649438464       40.0439988703
